data_sh2185_cu
_audit_creation_date              2018-03-09
_audit_creation_method
;
Olex2 1.2
(compiled 2017.08.10 svn.r3458 for OlexSys, GUI svn.r5381)
;
_shelx_SHELXL_version_number      '2018/1'
_publ_contact_author_address      ?
_publ_contact_author_email        ?
_publ_contact_author_id_orcid     ?
_publ_contact_author_name         ''
_publ_contact_author_phone        ?
_publ_section_references
;
Dolomanov, O.V., Bourhis, L.J., Gildea, R.J, Howard, J.A.K. & Puschmann, H.
 (2009), J. Appl. Cryst. 42, 339-341.

Sheldrick, G.M. (2015). Acta Cryst. A71, 3-8.

Sheldrick, G.M. (2015). Acta Cryst. C71, 3-8.
;
_chemical_name_common             ?
_chemical_name_systematic         ?
_chemical_formula_moiety          'C22 H25 N O'
_chemical_formula_sum             'C22 H25 N O'
_chemical_formula_weight          319.43
_chemical_absolute_configuration  ?
_chemical_melting_point           ?
_chemical_oxdiff_formula          'C92 H92 O4 N1 '
loop_
  _atom_type_symbol
  _atom_type_description
  _atom_type_scat_dispersion_real
  _atom_type_scat_dispersion_imag
  _atom_type_scat_source
 'C' 'C' 0.0181 0.0091 'International Tables Vol C Tables 4.2.6.8 and 6.1.1.4'
 'H' 'H' 0.0000 0.0000 'International Tables Vol C Tables 4.2.6.8 and 6.1.1.4'
 'N' 'N' 0.0311 0.0180 'International Tables Vol C Tables 4.2.6.8 and 6.1.1.4'
 'O' 'O' 0.0492 0.0322 'International Tables Vol C Tables 4.2.6.8 and 6.1.1.4'

_shelx_space_group_comment
;
The symmetry employed for this shelxl refinement is uniquely defined
by the following loop, which should always be used as a source of
symmetry information in preference to the above space-group names.
They are only intended as comments.
;
_space_group_crystal_system       'orthorhombic'
_space_group_IT_number            19
_space_group_name_H-M_alt         'P 21 21 21'
_space_group_name_Hall            'P 2ac 2ab'
loop_
  _space_group_symop_operation_xyz
 'x, y, z'
 '-x+1/2, -y, z+1/2'
 '-x, y+1/2, -z+1/2'
 'x+1/2, -y+1/2, -z'

_cell_length_a                    7.71920(10)
_cell_length_b                    11.06720(10)
_cell_length_c                    20.9366(2)
_cell_angle_alpha                 90
_cell_angle_beta                  90
_cell_angle_gamma                 90
_cell_volume                      1788.61(3)
_cell_formula_units_Z             4
_cell_measurement_reflns_used     14694
_cell_measurement_temperature     293(2)
_cell_measurement_theta_max       77.2170
_cell_measurement_theta_min       4.2750
_shelx_estimated_absorpt_T_max    ?
_shelx_estimated_absorpt_T_min    ?
_exptl_absorpt_coefficient_mu     0.553
_exptl_absorpt_correction_T_max   1.00000
_exptl_absorpt_correction_T_min   0.92662
_exptl_absorpt_correction_type    multi-scan
_exptl_absorpt_process_details
;
CrysAlisPro 1.171.39.45f (Rigaku Oxford Diffraction, 2018)
Empirical absorption correction using spherical harmonics,
 implemented in SCALE3 ABSPACK scaling algorithm.
;
_exptl_absorpt_special_details    ?
_exptl_crystal_colour             ?
_exptl_crystal_density_diffrn     1.186
_exptl_crystal_density_meas       ?
_exptl_crystal_density_method     ?
_exptl_crystal_description        ?
_exptl_crystal_F_000              688
_exptl_crystal_size_max           ?
_exptl_crystal_size_mid           ?
_exptl_crystal_size_min           ?
_exptl_transmission_factor_max    ?
_exptl_transmission_factor_min    ?
_diffrn_reflns_av_R_equivalents   0.0317
_diffrn_reflns_av_unetI/netI      0.0203
_diffrn_reflns_Laue_measured_fraction_full 0.999
_diffrn_reflns_Laue_measured_fraction_max 0.982
_diffrn_reflns_limit_h_max        9
_diffrn_reflns_limit_h_min        -9
_diffrn_reflns_limit_k_max        13
_diffrn_reflns_limit_k_min        -14
_diffrn_reflns_limit_l_max        26
_diffrn_reflns_limit_l_min        -20
_diffrn_reflns_number             17343
_diffrn_reflns_point_group_measured_fraction_full 0.999
_diffrn_reflns_point_group_measured_fraction_max 0.965
_diffrn_reflns_theta_full         67.684
_diffrn_reflns_theta_max          77.398
_diffrn_reflns_theta_min          4.223
_diffrn_ambient_temperature       293(2)
_diffrn_detector                  'CCD plate'
_diffrn_detector_area_resol_mean  ?
_diffrn_detector_type             HyPix
_diffrn_measured_fraction_theta_full 0.999
_diffrn_measured_fraction_theta_max 0.982
_diffrn_measurement_details
;
List of Runs (angles in degrees, time in seconds):

  # Type    Start    End  Width  t~exp~   \w     \q     \k     \f   Frames
--------------------------------------------------------------------------
  1  \w    -62.00  22.00   0.50    0.14    --  -49.54  57.00-150.00  168
  2  \w    -62.00  22.00   0.50    0.14    --  -49.54  57.00 120.00  168
  3  \w   -121.00 -70.00   0.50    0.14    --  -49.54-125.00 -60.00  102
  4  \w     72.00 122.00   0.50    0.14    --   49.54 155.00  52.00  100
  5  \w    -53.00 -11.00   0.50    0.35    --  -84.25  19.00  90.00   84
  6  \w   -156.00 -83.00   0.50    0.35    --  -84.25 -99.00 120.00  146
  7  \w    -66.00 -13.00   0.50    0.35    --  -84.25  38.00-120.00  106
  8  \w     34.00 127.00   0.50    0.35    --  105.75 -77.00 150.00  186
  9  \w     32.00  61.00   0.50    0.35    --  105.75 -19.00-180.00   58
 10  \w     34.00  74.00   0.50    0.35    --  105.75 -38.00-120.00   80
 11  \w     34.00  74.00   0.50    0.35    --  105.75 -38.00 -30.00   80
 12  \w     34.00  74.00   0.50    0.35    --  105.75 -38.00-150.00   80
 13  \w     34.00  74.00   0.50    0.35    --  105.75 -38.00-180.00   80
 14  \w     32.00  61.00   0.50    0.35    --  105.75 -19.00  60.00   58
 15  \w     34.00 109.00   0.50    0.35    --  105.75 -99.00-120.00  150
 16  \w     32.00  61.00   0.50    0.35    --  105.75 -19.00 -60.00   58
 17  \w     32.00  61.00   0.50    0.35    --  105.75 -19.00 -90.00   58
 18  \w     32.00  61.00   0.50    0.35    --  105.75 -19.00  30.00   58
 19  \w     34.00 113.00   0.50    0.35    --  105.75-120.00 171.00  158
 20  \w   -121.00 -29.00   0.50    0.14    --  -49.54 -77.00   0.00  184
 21  \w   -121.00 -29.00   0.50    0.14    --  -49.54 -77.00-120.00  184
 22  \w   -121.00 -79.00   0.50    0.14    --  -49.54 -77.00-180.00   84
 23  \w   -121.00 -29.00   0.50    0.14    --  -49.54 -77.00 120.00  184
;
_diffrn_measurement_device        'four-circle diffractometer'
_diffrn_measurement_device_type   'XtaLAB Synergy, Dualflex, HyPix'
_diffrn_measurement_method        '\w scans'
_diffrn_orient_matrix_type
'CrysAlisPro convention (1999,Acta A55,543-557)'
_diffrn_orient_matrix_UB_11       -0.1644181000
_diffrn_orient_matrix_UB_12       0.0783921000
_diffrn_orient_matrix_UB_13       -0.0048588000
_diffrn_orient_matrix_UB_21       -0.1104521000
_diffrn_orient_matrix_UB_22       -0.1146643000
_diffrn_orient_matrix_UB_23       -0.0089231000
_diffrn_orient_matrix_UB_31       -0.0244161000
_diffrn_orient_matrix_UB_32       -0.0087426000
_diffrn_orient_matrix_UB_33       0.0728922000
_diffrn_radiation_monochromator   mirror
_diffrn_radiation_probe           x-ray
_diffrn_radiation_type            CuK\a
_diffrn_radiation_wavelength      1.54184
_diffrn_source                    'micro-focus sealed X-ray tube'
_diffrn_source_type               'PhotonJet (Cu) X-ray Source'
_reflns_Friedel_coverage          0.707
_reflns_Friedel_fraction_full     0.999
_reflns_Friedel_fraction_max      0.942
_reflns_number_gt                 3560
_reflns_number_total              3667
_reflns_odcompleteness_completeness 99.95
_reflns_odcompleteness_iscentric  1
_reflns_odcompleteness_theta      66.97
_reflns_special_details
;
 Reflections were merged by SHELXL according to the crystal
 class for the calculation of statistics and refinement.
 
 _reflns_Friedel_fraction is defined as the number of unique
 Friedel pairs measured divided by the number that would be
 possible theoretically, ignoring centric projections and
 systematic absences.
;
_reflns_threshold_expression      'I > 2\s(I)'
_computing_cell_refinement        'CrysAlisPro 1.171.39.45f (Rigaku OD, 2018)'
_computing_data_collection        'CrysAlisPro 1.171.39.45f (Rigaku OD, 2018)'
_computing_data_reduction         'CrysAlisPro 1.171.39.45f (Rigaku OD, 2018)'
_computing_molecular_graphics     'Olex2 (Dolomanov et al., 2009)'
_computing_publication_material   'Olex2 (Dolomanov et al., 2009)'
_computing_structure_refinement   'ShelXL (Sheldrick, 2015)'
_computing_structure_solution     'ShelXT (Sheldrick, 2015)'
_refine_diff_density_max          0.133
_refine_diff_density_min          -0.187
_refine_diff_density_rms          0.034
_refine_ls_abs_structure_details
;
 Flack x determined using 1457 quotients [(I+)-(I-)]/[(I+)+(I-)]
 (Parsons, Flack and Wagner, Acta Cryst. B69 (2013) 249-259).
;
_refine_ls_abs_structure_Flack    -0.04(9)
_refine_ls_extinction_coef        .
_refine_ls_extinction_method      none
_refine_ls_goodness_of_fit_ref    1.061
_refine_ls_hydrogen_treatment     mixed
_refine_ls_matrix_type            full
_refine_ls_number_parameters      319
_refine_ls_number_reflns          3667
_refine_ls_number_restraints      114
_refine_ls_R_factor_all           0.0300
_refine_ls_R_factor_gt            0.0291
_refine_ls_restrained_S_all       1.061
_refine_ls_shift/su_max           0.041
_refine_ls_shift/su_mean          0.003
_refine_ls_structure_factor_coef  Fsqd
_refine_ls_weighting_details
'w=1/[\s^2^(Fo^2^)+(0.0369P)^2^+0.2813P] where P=(Fo^2^+2Fc^2^)/3'
_refine_ls_weighting_scheme       calc
_refine_ls_wR_factor_gt           0.0721
_refine_ls_wR_factor_ref          0.0728
_refine_special_details           ?
_olex2_refinement_description
;
1. Fixed Uiso
 At 1.2 times of:
  All C(H) groups
2. Restrained planarity
 C17A, C16, C15, C14, C13, C18A
 with sigma of 0.01
 C1AA, C2AA, C0AA, C13, C17B, C18B
 with sigma of 0.01
3. Rigid bond restraints
 C13, C18B, C17B, C16, C14, C15, C2AA, C1AA, C0AA, C18A, C17A
 with sigma for 1-2 distances of 0.01 and sigma for 1-3 distances of 0.01
4. Uiso/Uaniso restraints and constraints
C18B \\sim C17B \\sim C13: within 2A with sigma of 0.02 and sigma for terminal
atoms of 0.04
Uanis(C18B) = Uanis(C18A)
Uanis(C17A) = Uanis(C17B)
Uanis(C1AA) = Uanis(C15)
Uanis(C2AA) = Uanis(C14)
5. Rigid body (RIGU) restrains
 C17B, C18B, C16, C15, C14, C13
 with sigma for 1-2 distances of 0.004 and sigma for 1-3 distances of 0.004
 C13, C18B, H18B, C17B, C16, H16, C14, H14, C15, H15, C2AA, H2AA, C1AA, H1AA,
 C0AA, H0AA, C18A, H18A, C17A, H17A
 with sigma for 1-2 distances of 0.004 and sigma for 1-3 distances of 0.004
6. Others
 Sof(C18B)=Sof(H18B)=Sof(C17B)=Sof(H17B)=Sof(C2AA)=Sof(H2AA)=Sof(C1AA)=
 Sof(H1AA)=Sof(C0AA)=Sof(H0AA)=1-FVAR(1)
 Sof(C16)=Sof(H16)=Sof(C14)=Sof(H14)=Sof(C15)=Sof(H15)=Sof(C18A)=Sof(H18A)=
 Sof(C17A)=Sof(H17A)=FVAR(1)
7.a Aromatic/amide H refined with riding coordinates:
 C18B(H18B), C17B(H17B), C16(H16), C14(H14), C15(H15), C2AA(H2AA), C1AA(H1AA),
 C0AA(H0AA), C18A(H18A), C17A(H17A)
;
_atom_sites_solution_hydrogens    mixed
_atom_sites_solution_primary      dual
_atom_sites_solution_secondary    ?
loop_
  _atom_site_label
  _atom_site_type_symbol
  _atom_site_fract_x
  _atom_site_fract_y
  _atom_site_fract_z
  _atom_site_U_iso_or_equiv
  _atom_site_adp_type
  _atom_site_occupancy
  _atom_site_site_symmetry_order
  _atom_site_calc_flag
  _atom_site_refinement_flags_posn
  _atom_site_refinement_flags_adp
  _atom_site_refinement_flags_occupancy
  _atom_site_disorder_assembly
  _atom_site_disorder_group
 O9 O 0.09129(15) 0.49084(10) 0.58836(6) 0.0276(3) Uani 1 1 d . . . . .
 N8 N 0.20801(17) 0.40997(11) 0.60061(6) 0.0204(3) Uani 1 1 d . . . . .
 C19 C 0.3379(2) 0.23897(13) 0.65406(7) 0.0197(3) Uani 1 1 d . . . . .
 C10 C 0.2038(2) 0.33606(13) 0.65002(7) 0.0205(3) Uani 1 1 d . . . . .
 C1 C 0.4346(2) 0.53850(13) 0.55293(7) 0.0194(3) Uani 1 1 d . . . . .
 C20 C 0.3251(2) 0.13805(14) 0.61436(7) 0.0231(3) Uani 1 1 d . . . . .
 C24 C 0.4743(2) 0.24547(15) 0.69746(7) 0.0240(3) Uani 1 1 d . . . . .
 C11 C 0.2870(2) 0.37202(14) 0.48950(7) 0.0228(3) Uani 1 1 d . . . . .
 C7 C 0.3562(2) 0.41056(14) 0.55342(7) 0.0189(3) Uani 1 1 d . . . . .
 C21 C 0.4471(2) 0.04651(14) 0.61733(8) 0.0278(4) Uani 1 1 d . . . . .
 C13 C 0.0708(2) 0.34345(14) 0.70071(7) 0.0232(3) Uani 1 1 d . U . . .
 C6 C 0.5819(2) 0.54688(14) 0.50397(7) 0.0223(3) Uani 1 1 d . . . . .
 C2 C 0.5006(2) 0.57354(15) 0.61954(8) 0.0235(3) Uani 1 1 d . . . . .
 C5 C 0.6634(2) 0.67286(15) 0.50376(8) 0.0249(3) Uani 1 1 d . . . . .
 C18B C 0.042(3) 0.261(3) 0.7367(13) 0.0245(4) Uani 0.094(3) 1 d . U P A 2
 H18B H 0.086695 0.188182 0.721722 0.029 Uiso 0.094(3) 1 calc R U P A 2
 C12 C 0.3446(2) 0.27752(16) 0.45712(8) 0.0273(3) Uani 1 1 d . . . . .
 C4 C 0.7292(2) 0.70730(15) 0.56997(8) 0.0259(3) Uani 1 1 d . . . . .
 C17B C -0.034(4) 0.249(5) 0.7900(19) 0.0283(7) Uani 0.094(3) 1 d . U P A 2
 H17B H -0.049352 0.173976 0.809021 0.034 Uiso 0.094(3) 1 calc R . P A 2
 C23 C 0.5959(2) 0.15275(17) 0.70083(8) 0.0299(4) Uani 1 1 d . . . . .
 C3 C 0.5834(2) 0.69915(14) 0.61885(8) 0.0265(3) Uani 1 1 d . . . . .
 C22 C 0.5823(2) 0.05350(16) 0.66084(8) 0.0304(4) Uani 1 1 d . . . . .
 C16 C -0.1646(3) 0.3518(2) 0.80357(11) 0.0285(5) Uani 0.906(3) 1 d . U P A 1
 H16 H -0.241209 0.355626 0.837788 0.034 Uiso 0.906(3) 1 calc R U P A 1
 C14 C -0.0650(2) 0.43018(16) 0.70253(9) 0.0272(4) Uani 0.906(3) 1 d . U P A 1
 H14 H -0.078403 0.484537 0.669010 0.033 Uiso 0.906(3) 1 calc R U P A 1
 C15 C -0.1780(3) 0.43401(17) 0.75425(10) 0.0316(5) Uani 0.906(3) 1 d . U P A
 1
 H15 H -0.263862 0.492897 0.755624 0.038 Uiso 0.906(3) 1 calc R U P A 1
 H2A H 0.590(2) 0.5125(17) 0.6354(9) 0.022(4) Uiso 1 1 d . . . . .
 H1 H 0.341(2) 0.5938(16) 0.5375(8) 0.020(4) Uiso 1 1 d . . . . .
 H5A H 0.580(3) 0.7346(19) 0.4887(10) 0.034(5) Uiso 1 1 d . . . . .
 H2B H 0.408(3) 0.5708(18) 0.6503(9) 0.029(5) Uiso 1 1 d . . . . .
 H4A H 0.823(3) 0.6520(19) 0.5816(10) 0.034(5) Uiso 1 1 d . . . . .
 H4B H 0.783(3) 0.7928(19) 0.5698(9) 0.030(5) Uiso 1 1 d . . . . .
 H21 H 0.440(3) -0.0247(18) 0.5886(9) 0.030(5) Uiso 1 1 d . . . . .
 H7 H 0.443(2) 0.3531(16) 0.5688(8) 0.018(4) Uiso 1 1 d . . . . .
 H3A H 0.491(3) 0.7622(18) 0.6073(10) 0.031(5) Uiso 1 1 d . . . . .
 H6A H 0.536(2) 0.5239(16) 0.4598(9) 0.021(4) Uiso 1 1 d . . . . .
 H11 H 0.197(3) 0.4239(19) 0.4717(10) 0.034(5) Uiso 1 1 d . . . . .
 H23 H 0.686(3) 0.1578(19) 0.7309(10) 0.035(5) Uiso 1 1 d . . . . .
 H20 H 0.228(3) 0.1301(17) 0.5835(10) 0.028(5) Uiso 1 1 d . . . . .
 H3B H 0.632(3) 0.7181(19) 0.6623(10) 0.031(5) Uiso 1 1 d . . . . .
 H22 H 0.670(3) -0.0098(19) 0.6630(10) 0.036(5) Uiso 1 1 d . . . . .
 H6B H 0.672(3) 0.4877(18) 0.5165(9) 0.028(5) Uiso 1 1 d . . . . .
 H24 H 0.486(3) 0.3158(18) 0.7253(9) 0.024(5) Uiso 1 1 d . . . . .
 H5B H 0.764(3) 0.6761(18) 0.4730(10) 0.033(5) Uiso 1 1 d . . . . .
 H12A H 0.298(3) 0.2587(18) 0.4130(10) 0.036(5) Uiso 1 1 d . . . . .
 H12B H 0.441(3) 0.223(2) 0.4747(10) 0.047(6) Uiso 1 1 d . . . . .
 C2AA C 0.022(2) 0.4467(17) 0.7237(8) 0.0272(4) Uani 0.094(3) 1 d . U P A 2
 H2AA H 0.044443 0.516571 0.700442 0.033 Uiso 0.094(3) 1 calc R U P A 2
 C1AA C -0.062(2) 0.4564(17) 0.7823(9) 0.0316(5) Uani 0.094(3) 1 d . U P A 2
 H1AA H -0.097619 0.531747 0.797070 0.038 Uiso 0.094(3) 1 calc R U P A 2
 C0AA C -0.094(3) 0.354(2) 0.8185(9) 0.026(4) Uani 0.094(3) 1 d . U P A 2
 H0AA H -0.149775 0.356218 0.857870 0.031 Uiso 0.094(3) 1 calc R U P A 2
 C18A C 0.0774(3) 0.2572(2) 0.75047(10) 0.0245(4) Uani 0.906(3) 1 d . U P A 1
 H18A H 0.159053 0.195453 0.748751 0.029 Uiso 0.906(3) 1 calc R U P A 1
 C17A C -0.0368(4) 0.2631(4) 0.80224(14) 0.0283(7) Uani 0.906(3) 1 d . U P A 1
 H17A H -0.027464 0.208054 0.835619 0.034 Uiso 0.906(3) 1 calc R U P A 1

loop_
  _atom_site_aniso_label
  _atom_site_aniso_U_11
  _atom_site_aniso_U_22
  _atom_site_aniso_U_33
  _atom_site_aniso_U_23
  _atom_site_aniso_U_13
  _atom_site_aniso_U_12
 O9 0.0232(5) 0.0292(6) 0.0303(6) 0.0060(5) 0.0033(5) 0.0095(5)
 N8 0.0201(6) 0.0208(6) 0.0204(6) 0.0001(5) 0.0007(5) 0.0009(5)
 C19 0.0216(7) 0.0209(7) 0.0165(6) 0.0025(5) 0.0036(6) -0.0022(6)
 C10 0.0229(7) 0.0199(7) 0.0189(7) -0.0017(5) 0.0002(6) -0.0023(6)
 C1 0.0219(7) 0.0188(7) 0.0175(6) 0.0012(5) 0.0007(6) 0.0016(6)
 C20 0.0277(8) 0.0210(7) 0.0207(7) 0.0013(6) 0.0038(6) -0.0046(6)
 C24 0.0229(7) 0.0299(8) 0.0193(7) -0.0001(6) 0.0018(6) -0.0015(7)
 C11 0.0230(7) 0.0249(7) 0.0204(7) 0.0022(6) -0.0017(6) -0.0010(6)
 C7 0.0186(7) 0.0207(7) 0.0175(7) 0.0016(6) 0.0011(6) 0.0021(6)
 C21 0.0349(9) 0.0186(7) 0.0300(8) 0.0025(6) 0.0121(7) -0.0014(7)
 C13 0.0265(8) 0.0210(7) 0.0220(7) -0.0028(6) 0.0047(6) -0.0032(6)
 C6 0.0240(7) 0.0229(7) 0.0200(7) -0.0004(6) 0.0038(6) 0.0004(6)
 C2 0.0268(8) 0.0254(8) 0.0183(7) -0.0007(6) 0.0022(6) -0.0015(7)
 C5 0.0264(8) 0.0249(8) 0.0235(8) 0.0025(6) 0.0033(7) -0.0028(7)
 C18B 0.0186(10) 0.0350(9) 0.0199(12) 0.0070(9) -0.0029(7) 0.0065(9)
 C12 0.0307(8) 0.0287(8) 0.0224(8) -0.0026(6) 0.0015(7) -0.0030(7)
 C4 0.0237(8) 0.0251(8) 0.0288(8) -0.0009(6) 0.0003(6) -0.0028(7)
 C17B 0.0281(8) 0.0385(15) 0.0182(16) 0.0047(12) 0.0041(9) 0.0015(8)
 C23 0.0232(8) 0.0416(10) 0.0250(8) 0.0075(7) 0.0010(7) 0.0011(7)
 C3 0.0309(8) 0.0253(8) 0.0232(8) -0.0042(6) 0.0018(7) -0.0018(7)
 C22 0.0283(8) 0.0297(8) 0.0333(9) 0.0101(7) 0.0109(7) 0.0065(7)
 C16 0.0279(13) 0.0321(10) 0.0256(12) -0.0033(9) 0.0078(9) -0.0008(11)
 C14 0.0282(10) 0.0230(8) 0.0303(10) 0.0040(7) 0.0062(8) 0.0042(8)
 C15 0.0325(10) 0.0240(9) 0.0385(10) -0.0002(7) 0.0134(8) 0.0061(8)
 C2AA 0.0282(10) 0.0230(8) 0.0303(10) 0.0040(7) 0.0062(8) 0.0042(8)
 C1AA 0.0325(10) 0.0240(9) 0.0385(10) -0.0002(7) 0.0134(8) 0.0061(8)
 C0AA 0.039(14) 0.031(6) 0.007(8) -0.003(5) 0.007(7) -0.015(9)
 C18A 0.0186(10) 0.0350(9) 0.0199(12) 0.0070(9) -0.0029(7) 0.0065(9)
 C17A 0.0281(8) 0.0385(15) 0.0182(16) 0.0047(12) 0.0041(9) 0.0015(8)

_geom_special_details
;
 All esds (except the esd in the dihedral angle between two l.s. planes)
 are estimated using the full covariance matrix.  The cell esds are taken
 into account individually in the estimation of esds in distances, angles
 and torsion angles; correlations between esds in cell parameters are only
 used when they are defined by crystal symmetry.  An approximate (isotropic)
 treatment of cell esds is used for estimating esds involving l.s. planes.
;
loop_
  _geom_bond_atom_site_label_1
  _geom_bond_atom_site_label_2
  _geom_bond_distance
  _geom_bond_site_symmetry_2
  _geom_bond_publ_flag
 O9 N8 1.2956(17) . ?
 N8 C10 1.3192(19) . ?
 N8 C7 1.5116(19) . ?
 C19 C10 1.495(2) . ?
 C19 C20 1.396(2) . ?
 C19 C24 1.393(2) . ?
 C10 C13 1.478(2) . ?
 C1 C7 1.540(2) . ?
 C1 C6 1.534(2) . ?
 C1 C2 1.535(2) . ?
 C1 H1 0.999(18) . ?
 C20 C21 1.385(2) . ?
 C20 H20 0.99(2) . ?
 C24 C23 1.393(2) . ?
 C24 H24 0.976(19) . ?
 C11 C7 1.503(2) . ?
 C11 C12 1.323(2) . ?
 C11 H11 0.98(2) . ?
 C7 H7 0.977(18) . ?
 C21 C22 1.388(3) . ?
 C21 H21 0.99(2) . ?
 C13 C18B 1.20(3) . ?
 C13 C14 1.422(2) . ?
 C13 C2AA 1.296(18) . ?
 C13 C18A 1.414(3) . ?
 C6 C5 1.530(2) . ?
 C6 H6A 1.022(18) . ?
 C6 H6B 0.99(2) . ?
 C2 C3 1.530(2) . ?
 C2 H2A 1.022(19) . ?
 C2 H2B 0.96(2) . ?
 C5 C4 1.525(2) . ?
 C5 H5A 0.99(2) . ?
 C5 H5B 1.01(2) . ?
 C18B H18B 0.9300 . ?
 C18B C17B 1.27(5) . ?
 C12 H12A 1.01(2) . ?
 C12 H12B 1.02(2) . ?
 C4 C3 1.524(2) . ?
 C4 H4A 0.98(2) . ?
 C4 H4B 1.03(2) . ?
 C17B H17B 0.9300 . ?
 C17B C0AA 1.39(5) . ?
 C23 C22 1.385(3) . ?
 C23 H23 0.94(2) . ?
 C3 H3A 1.03(2) . ?
 C3 H3B 1.01(2) . ?
 C22 H22 0.97(2) . ?
 C16 H16 0.9300 . ?
 C16 C15 1.380(3) . ?
 C16 C17A 1.391(5) . ?
 C14 H14 0.9300 . ?
 C14 C15 1.391(3) . ?
 C15 H15 0.9300 . ?
 C2AA H2AA 0.9300 . ?
 C2AA C1AA 1.39(3) . ?
 C1AA H1AA 0.9300 . ?
 C1AA C0AA 1.38(3) . ?
 C0AA H0AA 0.9300 . ?
 C18A H18A 0.9300 . ?
 C18A C17A 1.399(4) . ?
 C17A H17A 0.9300 . ?

loop_
  _geom_angle_atom_site_label_1
  _geom_angle_atom_site_label_2
  _geom_angle_atom_site_label_3
  _geom_angle
  _geom_angle_site_symmetry_1
  _geom_angle_site_symmetry_3
  _geom_angle_publ_flag
 O9 N8 C10 124.49(13) . . ?
 O9 N8 C7 113.20(11) . . ?
 C10 N8 C7 122.27(13) . . ?
 C20 C19 C10 119.49(14) . . ?
 C24 C19 C10 121.58(13) . . ?
 C24 C19 C20 118.91(14) . . ?
 N8 C10 C19 118.23(13) . . ?
 N8 C10 C13 123.08(14) . . ?
 C13 C10 C19 118.69(12) . . ?
 C7 C1 H1 106.4(11) . . ?
 C6 C1 C7 110.57(12) . . ?
 C6 C1 C2 110.23(13) . . ?
 C6 C1 H1 106.3(10) . . ?
 C2 C1 C7 110.89(12) . . ?
 C2 C1 H1 112.3(10) . . ?
 C19 C20 H20 120.8(11) . . ?
 C21 C20 C19 120.70(15) . . ?
 C21 C20 H20 118.5(11) . . ?
 C19 C24 H24 120.2(11) . . ?
 C23 C24 C19 120.31(15) . . ?
 C23 C24 H24 119.5(11) . . ?
 C7 C11 H11 115.3(12) . . ?
 C12 C11 C7 124.13(16) . . ?
 C12 C11 H11 120.6(12) . . ?
 N8 C7 C1 107.79(12) . . ?
 N8 C7 H7 107.4(10) . . ?
 C1 C7 H7 109.4(10) . . ?
 C11 C7 N8 108.17(13) . . ?
 C11 C7 C1 113.24(12) . . ?
 C11 C7 H7 110.6(10) . . ?
 C20 C21 C22 120.03(16) . . ?
 C20 C21 H21 121.1(12) . . ?
 C22 C21 H21 118.8(12) . . ?
 C18B C13 C10 122.3(15) . . ?
 C18B C13 C2AA 112.5(18) . . ?
 C14 C13 C10 124.64(14) . . ?
 C2AA C13 C10 121.1(8) . . ?
 C18A C13 C10 117.81(16) . . ?
 C18A C13 C14 117.55(17) . . ?
 C1 C6 H6A 109.3(10) . . ?
 C1 C6 H6B 107.7(11) . . ?
 C5 C6 C1 111.22(12) . . ?
 C5 C6 H6A 111.6(10) . . ?
 C5 C6 H6B 108.3(11) . . ?
 H6A C6 H6B 108.6(15) . . ?
 C1 C2 H2A 110.6(10) . . ?
 C1 C2 H2B 110.8(12) . . ?
 C3 C2 C1 111.08(13) . . ?
 C3 C2 H2A 108.7(11) . . ?
 C3 C2 H2B 110.2(12) . . ?
 H2A C2 H2B 105.3(16) . . ?
 C6 C5 H5A 111.1(12) . . ?
 C6 C5 H5B 110.5(12) . . ?
 C4 C5 C6 111.24(13) . . ?
 C4 C5 H5A 109.5(12) . . ?
 C4 C5 H5B 108.4(12) . . ?
 H5A C5 H5B 106.0(16) . . ?
 C13 C18B H18B 112.3 . . ?
 C13 C18B C17B 135(4) . . ?
 C17B C18B H18B 112.2 . . ?
 C11 C12 H12A 120.8(12) . . ?
 C11 C12 H12B 121.7(12) . . ?
 H12A C12 H12B 117.5(17) . . ?
 C5 C4 H4A 108.4(12) . . ?
 C5 C4 H4B 111.1(11) . . ?
 C3 C4 C5 110.47(14) . . ?
 C3 C4 H4A 110.1(12) . . ?
 C3 C4 H4B 110.6(11) . . ?
 H4A C4 H4B 106.1(17) . . ?
 C18B C17B H17B 121.8 . . ?
 C18B C17B C0AA 116(4) . . ?
 C0AA C17B H17B 121.7 . . ?
 C24 C23 H23 119.3(13) . . ?
 C22 C23 C24 120.17(16) . . ?
 C22 C23 H23 120.6(13) . . ?
 C2 C3 H3A 109.3(11) . . ?
 C2 C3 H3B 109.6(12) . . ?
 C4 C3 C2 111.64(13) . . ?
 C4 C3 H3A 108.3(11) . . ?
 C4 C3 H3B 108.7(12) . . ?
 H3A C3 H3B 109.3(17) . . ?
 C21 C22 H22 120.7(12) . . ?
 C23 C22 C21 119.87(16) . . ?
 C23 C22 H22 119.4(12) . . ?
 C15 C16 H16 119.9 . . ?
 C15 C16 C17A 120.2(2) . . ?
 C17A C16 H16 119.9 . . ?
 C13 C14 H14 119.9 . . ?
 C15 C14 C13 120.24(17) . . ?
 C15 C14 H14 119.9 . . ?
 C16 C15 C14 121.02(19) . . ?
 C16 C15 H15 119.5 . . ?
 C14 C15 H15 119.5 . . ?
 C13 C2AA H2AA 119.0 . . ?
 C13 C2AA C1AA 122.1(16) . . ?
 C1AA C2AA H2AA 119.0 . . ?
 C2AA C1AA H1AA 119.9 . . ?
 C0AA C1AA C2AA 120.2(18) . . ?
 C0AA C1AA H1AA 119.9 . . ?
 C17B C0AA C1AA 113(3) . . ?
 C17B C0AA H0AA 123.5 . . ?
 C1AA C0AA H0AA 123.5 . . ?
 C13 C18A H18A 119.5 . . ?
 C17A C18A C13 121.1(3) . . ?
 C17A C18A H18A 119.5 . . ?
 C16 C17A C18A 119.7(3) . . ?
 C16 C17A H17A 120.2 . . ?
 C18A C17A H17A 120.1 . . ?

loop_
  _geom_torsion_atom_site_label_1
  _geom_torsion_atom_site_label_2
  _geom_torsion_atom_site_label_3
  _geom_torsion_atom_site_label_4
  _geom_torsion
  _geom_torsion_site_symmetry_1
  _geom_torsion_site_symmetry_2
  _geom_torsion_site_symmetry_3
  _geom_torsion_site_symmetry_4
  _geom_torsion_publ_flag
 O9 N8 C10 C19 173.69(13) . . . . ?
 O9 N8 C10 C13 -5.1(2) . . . . ?
 O9 N8 C7 C1 56.43(15) . . . . ?
 O9 N8 C7 C11 -66.35(16) . . . . ?
 N8 C10 C13 C18B 162.0(11) . . . . ?
 N8 C10 C13 C14 -0.5(2) . . . . ?
 N8 C10 C13 C2AA -42.4(8) . . . . ?
 N8 C10 C13 C18A 178.47(17) . . . . ?
 C19 C10 C13 C18B -16.8(11) . . . . ?
 C19 C10 C13 C14 -179.34(16) . . . . ?
 C19 C10 C13 C2AA 138.8(8) . . . . ?
 C19 C10 C13 C18A -0.3(2) . . . . ?
 C19 C20 C21 C22 1.1(2) . . . . ?
 C19 C24 C23 C22 0.2(2) . . . . ?
 C10 N8 C7 C1 -121.62(14) . . . . ?
 C10 N8 C7 C11 115.59(15) . . . . ?
 C10 C19 C20 C21 -179.68(14) . . . . ?
 C10 C19 C24 C23 179.01(14) . . . . ?
 C10 C13 C18B C17B 163.1(11) . . . . ?
 C10 C13 C14 C15 -176.32(16) . . . . ?
 C10 C13 C2AA C1AA -161.2(5) . . . . ?
 C10 C13 C18A C17A 175.80(18) . . . . ?
 C1 C6 C5 C4 56.75(18) . . . . ?
 C1 C2 C3 C4 -56.16(18) . . . . ?
 C20 C19 C10 N8 -74.74(18) . . . . ?
 C20 C19 C10 C13 104.12(16) . . . . ?
 C20 C19 C24 C23 0.2(2) . . . . ?
 C20 C21 C22 C23 -0.6(2) . . . . ?
 C24 C19 C10 N8 106.50(16) . . . . ?
 C24 C19 C10 C13 -74.65(19) . . . . ?
 C24 C19 C20 C21 -0.9(2) . . . . ?
 C24 C23 C22 C21 0.0(2) . . . . ?
 C7 N8 C10 C19 -8.5(2) . . . . ?
 C7 N8 C10 C13 172.72(13) . . . . ?
 C7 C1 C6 C5 -178.95(13) . . . . ?
 C7 C1 C2 C3 178.31(13) . . . . ?
 C13 C18B C17B C0AA -4.6(16) . . . . ?
 C13 C14 C15 C16 -2.2(3) . . . . ?
 C13 C2AA C1AA C0AA 1.3(4) . . . . ?
 C13 C18A C17A C16 3.1(3) . . . . ?
 C6 C1 C7 N8 -177.85(12) . . . . ?
 C6 C1 C7 C11 -58.23(17) . . . . ?
 C6 C1 C2 C3 55.52(17) . . . . ?
 C6 C5 C4 C3 -56.16(18) . . . . ?
 C2 C1 C7 N8 59.56(15) . . . . ?
 C2 C1 C7 C11 179.18(13) . . . . ?
 C2 C1 C6 C5 -55.98(16) . . . . ?
 C5 C4 C3 C2 56.02(19) . . . . ?
 C18B C13 C2AA C1AA -3.3(9) . . . . ?
 C18B C17B C0AA C1AA 1.2(9) . . . . ?
 C12 C11 C7 N8 -121.49(17) . . . . ?
 C12 C11 C7 C1 119.11(17) . . . . ?
 C14 C13 C18A C17A -5.1(3) . . . . ?
 C15 C16 C17A C18A -0.4(2) . . . . ?
 C2AA C13 C18B C17B 5.5(15) . . . . ?
 C2AA C1AA C0AA C17B -0.1(4) . . . . ?
 C18A C13 C14 C15 4.7(3) . . . . ?
 C17A C16 C15 C14 0.0(2) . . . . ?

_shelx_res_file
;
TITL sh2185_cu_a.res in P2(1)2(1)2(1)
    sh2185_cu.res
    created by SHELXL-2018/1 at 10:04:28 on 09-Mar-2018
REM Old TITL SH2185_Cu in P2(1)2(1)2(1)
REM SHELXT solution in P2(1)2(1)2(1)
REM R1 0.111, Rweak 0.028, Alpha 0.001, Orientation as input
REM Flack x = 0.120 ( 0.081 ) from Parsons' quotients
REM Formula found by SHELXT: C22 O2
CELL 1.54184 7.7192 11.0672 20.9366 90 90 90
ZERR 4 0.0001 0.0001 0.0002 0 0 0
LATT -1
SYMM 0.5-X,-Y,0.5+Z
SYMM -X,0.5+Y,0.5-Z
SYMM 0.5+X,0.5-Y,-Z
SFAC C H N O
UNIT 88 100 4 4
FLAT 0.01 C17A C16 C15 C14 C13 C18A
FLAT 0.01 C1AA C2AA C0AA C13 C17B C18B
DELU C13 C18B C17B C16 C14 C15 C2AA C1AA C0AA C18A C17A
SIMU 0.02 0.04 2 C18B C17B C13
RIGU C17B C18B C16 C15 C14 C13
RIGU C13 C18B H18B C17B C16 H16 C14 H14 C15 H15 C2AA H2AA C1AA H1AA C0AA =
 H0AA C18A H18A C17A H17A
EADP C18B C18A
EADP C17A C17B
EADP C1AA C15
EADP C2AA C14

L.S. 4
PLAN  5
BOND $H
LIST 6
MORE -1
CONF
fmap 2
ACTA
REM <olex2.extras>
REM <HklSrc "%.\\SH2185_Cu.hkl">
REM </olex2.extras>

WGHT    0.036900    0.281300
FVAR       7.38625   0.90572
O9    4    0.091292    0.490841    0.588361    11.00000    0.02322    0.02920 =
         0.03028    0.00602    0.00329    0.00953
N8    3    0.208009    0.409973    0.600609    11.00000    0.02013    0.02084 =
         0.02036    0.00011    0.00068    0.00086
C19   1    0.337928    0.238971    0.654061    11.00000    0.02160    0.02092 =
         0.01649    0.00253    0.00357   -0.00222
C10   1    0.203766    0.336057    0.650018    11.00000    0.02290    0.01987 =
         0.01885   -0.00170    0.00022   -0.00228
C1    1    0.434562    0.538501    0.552926    11.00000    0.02186    0.01876 =
         0.01750    0.00116    0.00069    0.00160
C20   1    0.325102    0.138046    0.614356    11.00000    0.02769    0.02100 =
         0.02067    0.00130    0.00377   -0.00462
C24   1    0.474319    0.245468    0.697458    11.00000    0.02289    0.02994 =
         0.01932   -0.00010    0.00185   -0.00148
C11   1    0.287008    0.372024    0.489499    11.00000    0.02301    0.02486 =
         0.02043    0.00220   -0.00169   -0.00096
C7    1    0.356216    0.410559    0.553420    11.00000    0.01865    0.02068 =
         0.01749    0.00155    0.00106    0.00215
C21   1    0.447097    0.046513    0.617328    11.00000    0.03492    0.01859 =
         0.03001    0.00248    0.01206   -0.00140
C13   1    0.070838    0.343454    0.700707    11.00000    0.02650    0.02103 =
         0.02195   -0.00285    0.00473   -0.00319
C6    1    0.581918    0.546881    0.503971    11.00000    0.02402    0.02287 =
         0.01996   -0.00040    0.00375    0.00043
C2    1    0.500562    0.573537    0.619540    11.00000    0.02677    0.02543 =
         0.01830   -0.00070    0.00218   -0.00154
C5    1    0.663404    0.672863    0.503762    11.00000    0.02639    0.02492 =
         0.02351    0.00254    0.00332   -0.00281
PART 2
C18B  1    0.042122    0.260964    0.736651   -21.00000    0.01864    0.03502 =
         0.01991    0.00705   -0.00291    0.00647
AFIX  43
H18B  2    0.086695    0.188182    0.721722   -21.00000   -1.20000
AFIX   0
PART 0
C12   1    0.344620    0.277516    0.457118    11.00000    0.03065    0.02874 =
         0.02240   -0.00256    0.00148   -0.00305
C4    1    0.729229    0.707297    0.569968    11.00000    0.02375    0.02506 =
         0.02884   -0.00092    0.00027   -0.00285
PART 2
C17B  1   -0.034279    0.249198    0.790018   -21.00000    0.02811    0.03852 =
         0.01817    0.00473    0.00412    0.00150
AFIX  43
H17B  2   -0.049352    0.173976    0.809021   -21.00000   -1.20000
AFIX   0
PART 0
C23   1    0.595942    0.152751    0.700829    11.00000    0.02317    0.04161 =
         0.02504    0.00754    0.00101    0.00106
C3    1    0.583438    0.699150    0.618851    11.00000    0.03090    0.02527 =
         0.02320   -0.00415    0.00177   -0.00184
C22   1    0.582325    0.053496    0.660843    11.00000    0.02829    0.02971 =
         0.03325    0.01014    0.01089    0.00647
PART 1
C16   1   -0.164599    0.351768    0.803566    21.00000    0.02790    0.03210 =
         0.02560   -0.00326    0.00783   -0.00077
AFIX  43
H16   2   -0.241209    0.355626    0.837788    21.00000   -1.20000
AFIX   0
C14   1   -0.065033    0.430185    0.702526    21.00000    0.02818    0.02304 =
         0.03025    0.00402    0.00620    0.00415
AFIX  43
H14   2   -0.078403    0.484537    0.669010    21.00000   -1.20000
AFIX   0
C15   1   -0.177989    0.434014    0.754248    21.00000    0.03246    0.02402 =
         0.03846   -0.00015    0.01339    0.00609
AFIX  43
H15   2   -0.263862    0.492897    0.755624    21.00000   -1.20000
AFIX   0
PART 0
H2A   2    0.590062    0.512473    0.635386    11.00000    0.02221
H1    2    0.341293    0.593801    0.537484    11.00000    0.01985
H5A   2    0.579527    0.734577    0.488744    11.00000    0.03399
H2B   2    0.408339    0.570838    0.650261    11.00000    0.02949
H4A   2    0.823206    0.651959    0.581578    11.00000    0.03406
H4B   2    0.782859    0.792794    0.569811    11.00000    0.03044
H21   2    0.440233   -0.024663    0.588568    11.00000    0.02959
H7    2    0.442709    0.353083    0.568793    11.00000    0.01843
H3A   2    0.491218    0.762177    0.607280    11.00000    0.03112
H6A   2    0.535799    0.523891    0.459832    11.00000    0.02121
H11   2    0.197124    0.423909    0.471656    11.00000    0.03398
H23   2    0.685856    0.157769    0.730920    11.00000    0.03512
H20   2    0.227851    0.130052    0.583539    11.00000    0.02822
H3B   2    0.631829    0.718079    0.662321    11.00000    0.03150
H22   2    0.669704   -0.009827    0.662980    11.00000    0.03560
H6B   2    0.672119    0.487726    0.516472    11.00000    0.02773
H24   2    0.486425    0.315750    0.725283    11.00000    0.02398
H5B   2    0.763810    0.676098    0.473023    11.00000    0.03274
H12A  2    0.298439    0.258744    0.412963    11.00000    0.03556
H12B  2    0.440590    0.222935    0.474699    11.00000    0.04658
PART 2
C2AA  1    0.022190    0.446728    0.723739   -21.00000    0.02818    0.02304 =
         0.03025    0.00402    0.00620    0.00415
AFIX  43
H2AA  2    0.044443    0.516571    0.700442   -21.00000   -1.20000
AFIX   0
C1AA  1   -0.062398    0.456396    0.782306   -21.00000    0.03246    0.02402 =
         0.03846   -0.00015    0.01339    0.00609
AFIX  43
H1AA  2   -0.097619    0.531747    0.797070   -21.00000   -1.20000
AFIX   0
C0AA  1   -0.094097    0.354495    0.818489   -21.00000    0.03933    0.03070 =
         0.00727   -0.00271    0.00662   -0.01534
AFIX  43
H0AA  2   -0.149775    0.356218    0.857870   -21.00000   -1.20000
AFIX   0
PART 0
PART 1
C18A  1    0.077417    0.257167    0.750470    21.00000    0.01864    0.03502 =
         0.01991    0.00705   -0.00291    0.00647
AFIX  43
H18A  2    0.159053    0.195453    0.748751    21.00000   -1.20000
AFIX   0
C17A  1   -0.036849    0.263112    0.802240    21.00000    0.02811    0.03852 =
         0.01817    0.00473    0.00412    0.00150
AFIX  43
H17A  2   -0.027464    0.208054    0.835619    21.00000   -1.20000
AFIX   0
HKLF 4




REM  sh2185_cu_a.res in P2(1)2(1)2(1)
REM R1 =  0.0291 for    3560 Fo > 4sig(Fo)  and  0.0300 for all    3667 data
REM    319 parameters refined using    114 restraints

END

WGHT      0.0370      0.2822

REM Highest difference peak  0.133,  deepest hole -0.187,  1-sigma level  0.034
Q1    1   0.0848  0.4458  0.7366  11.00000  0.05    0.13
Q2    1   0.1366  0.3358  0.6748  11.00000  0.05    0.12
Q3    1   0.4596  0.5557  0.5877  11.00000  0.05    0.12
Q4    1   0.1207  0.3226  0.7314  11.00000  0.05    0.11
Q5    1   0.0463  0.1182  0.5905  11.00000  0.05    0.11
;
_shelx_res_checksum               50387
_shelx_hkl_file
;
   0   0   2 144.235 23.5309   2
   0   0   3-5.76448 28.3280   1
   0   0   3 2.61076 24.0406   2
   0   0   4 1958.07 107.925   2
   0   0   4 2253.55 119.073   1
   0   0   5 29.2978 44.1043   1
   0   0   5 13.1903 38.6544   2
   0   0   6 1674.54 113.226   2
   0   0   6 1528.72 117.725   1
   0   0   7-10.9919 65.4177   4
   0   0   7 14.0037 51.2934   1
   0   0   7-6.23015 40.8219   2
   0   0   8 3604.37 204.249   1
   0   0   8 3504.38 193.640   2
   0   0   9 8.03932 46.4449   2
   0   0   9 27.4931 60.8486   1
   0   0  10 123976. 3233.87   1
   0   0  10 122187. 3198.90   2
   0   0  11 91.3876 74.8833   1
   0   0  12 2707.94 215.237   1
   0   0  13 13.4403 62.2716   1
   0   0  13-22.6849 73.3845  19
   0   0  13-11.1130 78.0867  15
   0   0  14 226.707 84.4832   1
   0   0  14 100.773 85.7303  19
   0   0  14 135.225 91.0969  15
   0   0  15 69.3277 86.2336  19
   0   0  15 107.731 95.6852  15
   0   0  15 158.353 83.7552   8
   0   0  16 47977.4 1424.78   8
   0   0  16 47033.7 1453.76  15
   0   0  16 46764.1 1464.05  19
   0   0  17 30.9446 109.930  15
   0   0  17 225.167 105.422  19
   0   0  17 95.5818 91.7228   8
   0   0 -18 535.064 173.955  21
   0   0  18 596.768 151.222  15
   0   0  18 740.650 164.362  19
   0   0  18 706.859 142.309   8
   0   0  19 68.6793 112.541  19
   0   0  19 49.1032 123.486  15
   0   0  19 191.457 88.5287   8
   0   0  20 162510. 4412.93  19
   0   0  20 167259. 4327.53   8
   0   0  20 166148. 4403.75  15
   0   0  21 11.6046 79.7777   8
   0   0  21 194.135 122.038  19
   0   0  21 227.927 123.974  15
   0   0  22 38430.5 1196.25  15
   0   0  22 36493.6 1206.44  19
   0   0  23 78.0265 90.3789  19
   0   0  23-23.5695 99.1885  15
   0   0  24 19078.2 647.795  15
   0   0  25 6.77210 58.2793  15
   0  -1   0 13.0811 21.6849  20
   0   1   0 10.9392 23.8749  22
   0  -1   0 6.55765 19.6135   1
   0   1   1 47651.8 1191.96  22
   0  -1   1 45866.5 1158.61   3
   0  -1   1 45988.0 1188.38  20
   0  -1   1 47608.2 1184.75   1
   0  -1   2 163645. 4069.10   3
   0  -1  -2 163060. 4064.41  20
   0   1   2 169536. 4081.93  23
   0  -1   2 158751. 4086.56   1
   0   1   3 146619. 3671.75  23
   0   1   3 145525. 3598.68   1
   0  -1   3 146666. 3654.43   2
   0  -1   4 257761. 6374.75   2
   0   1   4 257262. 6314.47   1
   0  -1   4 253176. 6400.26   1
   0  -1   5 25877.5 777.610   1
   0   1   5 26518.7 697.224   1
   0  -1   5 24713.2 748.804   2
   0  -1   6 6209.45 289.183   1
   0   1   6 6474.52 230.651   1
   0  -1   6 6586.94 274.241   2
   0  -1   7 4005.30 210.636   2
   0  -1   7 4008.69 234.601   1
   0   1   7 4319.64 259.957   4
   0   1   7 3783.28 174.844   1
   0  -1   8 37629.5 1086.17   2
   0   1   8 39242.7 1187.80   4
   0  -1   8 37926.9 1128.07   1
   0   1   8 35891.2 1026.46   1
   0  -1   9 8926.01 413.488   1
   0   1   9 9314.63 332.309   6
   0   1   9 9074.70 339.033   1
   0   1   9 7974.01 439.254   4
   0  -1   9 9337.33 384.442   2
   0  -1  10 10021.8 456.112   1
   0   1  10 9629.81 501.463   4
   0   1  10 9389.40 366.920   1
   0  -1  10 9280.97 404.606   2
   0   1  10 10370.4 367.691   6
   0   1  11 17571.2 587.684   1
   0   1  11 17893.0 777.670   4
   0  -1  11 16826.5 628.986   2
   0  -1  11 17973.3 694.992   1
   0   1  11 18294.9 583.607   6
   0  -1  12 2703.83 239.476   1
   0  -1  12 2726.85 208.135   2
   0   1  12 2716.81 183.660   1
   0  -1  13 3206.09 231.622   2
   0   1  13 3804.28 248.435  19
   0  -1  13 3565.02 285.973   1
   0  -1  13 3772.74 248.979  19
   0  -1  14 1786.40 178.332  15
   0  -1  14 2132.79 198.739  19
   0  -1  14 2249.62 237.877   1
   0  -1  14 1908.94 182.075   8
   0   1  14 1888.08 183.467   8
   0   1  14 1753.27 187.419  19
   0   1  15 14042.7 561.279   8
   0  -1  15 13339.0 641.068   1
   0  -1  15 14505.6 578.994  15
   0   1  15 13863.2 585.956  19
   0  -1  15 14790.4 596.685  19
   0  -1  15 13582.1 562.520   8
   0  -1  16 983.611 149.606   8
   0  -1  16 1045.59 158.054  15
   0   1  16 1073.77 158.502  19
   0  -1  16 911.499 156.058  19
   0   1  16 1130.70 177.640  15
   0   1  16 826.995 137.961   8
   0   1  17 41384.5 1341.62  15
   0  -1  17 41536.3 1344.74  19
   0   1  17 40465.4 1332.48  19
   0  -1  17 41975.8 1298.46   8
   0  -1  17 41682.9 1317.65  15
   0   1  17 42207.3 1290.12   8
   0  -1  18 8113.84 451.336  19
   0   1  18 8103.14 446.736  15
   0  -1  18 7671.20 407.293   8
   0   1  18 8047.09 406.245   8
   0   1  18 8088.46 451.539  19
   0  -1  18 7809.80 428.092  15
   0   1  19 20205.3 790.406  19
   0   1  19 20347.9 790.179  15
   0  -1 -19 19150.1 1024.08  21
   0  -1  19 19558.2 731.985   8
   0  -1  19 19539.9 788.571  19
   0   1  19 19465.1 723.365   8
   0  -1  19 18563.7 747.211  15
   0   1  20 400.247 145.918  15
   0   1  20 392.111 113.159   8
   0  -1  20 274.287 108.703   8
   0  -1  20 524.762 150.165  19
   0  -1  20 481.060 145.605  15
   0  -1 -20 572.220 185.522  21
   0   1  20 372.747 141.863  19
   0  -1  21 5702.42 338.097  15
   0   1  21 5364.25 301.580   8
   0   1  21 5885.88 364.941  19
   0  -1  21 5536.68 309.879   8
   0   1  21 5794.45 363.602  15
   0  -1  21 5820.94 360.607  19
   0  -1  22 3348.57 247.818  15
   0   1  22 3327.90 264.500  19
   0   1  22 3322.65 262.232  15
   0  -1  22 3904.70 282.393  19
   0  -1  23 6568.74 359.065  19
   0   1  23 6495.16 352.178  15
   0  -1  23 6575.28 327.110  15
   0   1  24 12737.1 495.201  15
   0  -1  24 12704.9 504.019  19
   0  -1  24 12645.8 458.977  15
   0   1  25 90.0833 72.5750  15
   0  -2   0 41587.7 1131.29   1
   0  -2   0 43531.2 1152.70  20
   0   2   0 42154.0 1155.89  22
   0  -2   1 14381.1 462.526  20
   0  -2   1 14411.4 453.814   1
   0  -2  -1 14212.5 446.658  20
   0  -2  -1 13202.4 420.623   1
   0   2   1 15425.3 472.882  22
   0   2   1 14586.6 453.059  23
   0  -2   1 13344.5 410.062   3
   0   2   2 177355. 4388.94  23
   0  -2   2 177415. 4404.10   1
   0  -2   2 169659. 4419.87  20
   0  -2   2 173526. 4347.33   3
   0  -2  -2 171708. 4371.28  20
   0   2   2 177354. 4416.04  22
   0   2   3 217948. 5565.78  22
   0  -2   3 227627. 5505.68   3
   0   2   3 212589. 5526.11  23
   0  -2   3 214601. 5544.54   1
   0  -2  -3 226765. 5510.88  20
   0  -2  -4 63501.3 1581.39  20
   0  -2   4 61599.0 1602.14   2
   0   2   4 61457.6 1608.82  23
   0  -2  -5 26552.1 708.004  20
   0   2   5 21477.1 582.785   1
   0  -2   5 24657.3 718.952   2
   0   2   5 23195.6 726.920  23
   0  -2  -6 60389.6 1679.59  20
   0  -2   6 63803.1 1712.31   2
   0   2   6 62048.4 1557.96   1
   0   2   6 65500.6 1769.25   4
   0  -2   6 62431.1 1747.28   1
   0  -2   7 12348.9 464.640   2
   0  -2   7 12036.4 497.223   1
   0  -2  -7 11375.7 438.088  20
   0   2   7 11827.8 504.562   4
   0   2   7 11757.7 329.215   1
   0  -2  -8 31483.4 953.406  20
   0   2   8 29966.4 805.297   1
   0   2   8 34408.7 1063.46   4
   0  -2   8 31881.2 975.049   2
   0  -2   8 32894.3 1028.86   1
   0  -2  -9 68192.8 1827.69  20
   0  -2   9 71755.0 1918.05   1
   0   2   9 68002.8 1940.27   4
   0  -2   9 68206.2 1848.01   2
   0   2   9 69940.9 1729.81   6
   0  -2  10 1196.35 177.391   1
   0   2  10 1678.65 126.296   6
   0  -2  10 1212.73 103.354   7
   0  -2  10 1486.56 161.118   2
   0   2  10 1390.54 192.246   4
   0  -2 -10 1513.20 155.495  20
   0   2  11 22999.9 921.954   4
   0  -2  11 22130.8 790.200   2
   0  -2  11 22667.8 862.536   1
   0  -2 -11 22089.5 781.591  20
   0  -2  11 21327.5 653.132   7
   0   2  11 22593.6 695.394   6
   0  -2  12 11225.0 568.496   1
   0   2  12 12024.3 629.851   4
   0  -2 -12 11597.8 507.806  20
   0   2  12 11296.6 428.002   6
   0  -2  12 10640.1 379.341   7
   0  -2  12 10338.7 488.668   2
   0   2  13 916.973 138.113  19
   0  -2  13 621.187 119.969   2
   0  -2 -13 874.711 141.306  20
   0   2  13 1139.03 124.395   6
   0  -2  13 752.559 166.460   1
   0   2  13 1101.74 208.186   4
   0  -2  13 849.260 137.037  19
   0   2  13 1182.77 152.232  15
   0  -2  13 1025.96 134.196   8
   0   2  13 882.908 129.421   8
   0  -2  14 4878.81 290.711   8
   0   2 -14 4909.37 355.961  21
   0   2  14 3961.63 264.142   8
   0   2  14 4381.89 288.925  15
   0  -2  14 4474.31 359.497   1
   0  -2  14 4628.56 296.179  19
   0  -2  14 4462.15 272.861  15
   0   2  14 4681.53 297.566  19
   0   2  15 2948.32 247.505  15
   0   2  15 3162.39 252.313  19
   0  -2  15 2644.21 288.329   1
   0  -2  15 2832.99 231.552   8
   0   2  15 2784.82 221.413   8
   0  -2  15 2958.47 230.487  15
   0  -2  15 2447.43 233.652  19
   0  -2  16 4047.05 275.029  15
   0   2  16 3531.52 290.663  19
   0   2  16 3827.33 267.834   8
   0  -2  16 4411.98 288.240   8
   0  -2  16 3605.75 284.613  19
   0   2  16 3763.67 290.199  15
   0  -2  17 1348.33 191.851  19
   0  -2  17 1293.78 172.899   8
   0   2  17 1169.26 185.198  15
   0   2  17 1031.37 176.144  19
   0   2  17 1046.22 154.901   8
   0  -2  17 1215.42 174.085  15
   0   2  18 26379.4 900.093   8
   0  -2  18 27392.8 919.291  15
   0  -2  18 26091.4 959.047  19
   0  -2  18 25435.0 905.965   8
   0   2  18 25625.0 959.471  19
   0   2  19 77805.0 2143.43   8
   0   2  19 77668.8 2228.76  19
   0  -2  19 74573.8 2221.50  19
   0  -2  19 75820.2 2155.30  15
   0  -2  19 75068.9 2151.59   8
   0  -2  20 5162.79 354.773  19
   0   2  20 4948.88 300.903   8
   0  -2  20 5654.35 325.794  15
   0  -2 -20 4674.93 489.280  21
   0  -2  20 5251.33 314.598   8
   0   2  20 5906.17 370.487  19
   0  -2  21 872.276 133.472   8
   0  -2  21 648.478 134.006  15
   0   2  21 575.620 116.517   8
   0  -2  21 694.193 162.681  19
   0  -2  22 17348.4 680.334  19
   0  -2  22 17238.1 617.325  15
   0  -2  23 4993.45 299.338  19
   0   2  24 251.081 98.9488  15
   0  -2  24 313.543 101.285  19
   0  -2  25 642.726 101.891  19
   0   2  25 531.571 93.1943  15
   0  -3   0-8.25781 66.8182  20
   0   3   0-8.09390 59.2936  23
   0   3   0-8.47568 67.4474  22
   0  -3   0 27.5131 57.4515   1
   0  -3  -1 76930.6 1947.25   1
   0  -3   1 76059.8 1916.39   3
   0   3  -1 74032.1 1989.90  22
   0   3   1 79462.0 2014.48  22
   0  -3  -1 72705.0 1977.92  20
   0  -3   1 75536.5 1982.45   1
   0   3   1 72024.5 1988.22  23
   0  -3  -2 4680.16 235.789  20
   0  -3   2 4468.88 196.709   3
   0  -3   2 4616.82 247.063   1
   0  -3   2 3910.10 238.574  20
   0   3   2 4374.07 235.297  23
   0   3   2 3981.42 242.428  22
   0  -3   3 34099.1 1121.64  20
   0   3   3 37755.1 1072.04  23
   0   3   3 33811.0 1093.16  22
   0  -3  -3 35034.8 1040.90  20
   0  -3   3 37090.1 1083.42   1
   0  -3   3 37254.6 1012.09   3
   0  -3   4 15421.4 506.393   3
   0  -3   4 15350.4 568.758   1
   0  -3  -4 14323.7 515.175  20
   0   3   4 14327.5 544.490  23
   0  -3   4 15229.9 546.693   2
   0  -3   5 40873.9 1220.81   1
   0  -3   5 41966.0 1195.71   2
   0   3   5 37912.5 1205.91   4
   0  -3  -5 39217.0 1148.93  20
   0   3   5 39316.5 1187.68  23
   0   3   6 80161.9 2219.28   4
   0  -3   6 79321.6 2174.40   2
   0  -3  -6 78327.8 2127.11  20
   0   3   6 78624.9 2186.36  23
   0  -3  -7 29463.1 951.671  20
   0  -3   7 35949.2 1033.36   2
   0  -3   7 33151.4 883.864   7
   0   3  -7 29325.3 826.635  21
   0   3   7 34026.8 1071.29   4
   0   3   8 22252.1 796.037   4
   0  -3   8 20037.1 725.966   2
   0  -3   8 19097.8 589.900   7
   0   3   8 19886.8 590.985   6
   0   3  -8 17698.9 564.585  21
   0  -3  -8 20581.1 680.633  20
   0  -3   8 19441.1 760.916   1
   0   3   9 29750.7 1049.46   4
   0  -3   9 28608.4 1028.35   1
   0  -3  -9 26647.2 906.470  20
   0  -3   9 30536.6 989.593   2
   0   3  -9 27275.8 826.943  21
   0  -3   9 28707.7 831.321   7
   0   3   9 29763.0 835.965   6
   0  -3  10 38.9528 106.772   1
   0   3  10 35.4333 54.9434   6
   0   3  10 41.1122 79.6851   4
   0  -3  10-20.0582 54.1023   7
   0  -3  10 15.3688 67.5539   2
   0  -3 -10 36.6818 70.5318  20
   0  -3  11 28108.5 849.211   7
   0   3  11 30316.4 874.531   6
   0   3  11 30365.2 1129.33   4
   0  -3  11 30637.7 1030.26   2
   0  -3  11 30103.0 1109.64   1
   0   3  12 34516.5 1304.24   4
   0  -3  12 33744.7 997.224   7
   0   3  12 34197.0 1073.68  15
   0  -3 -12 36109.1 1124.01  20
   0  -3  12 36971.3 1290.70   1
   0   3  12 33369.2 1074.02  19
   0   3  12 35184.3 1026.98   6
   0  -3  12 36049.1 1182.43   2
   0  -3  12 33342.4 1072.61  19
   0  -3  13 3422.10 279.723   2
   0  -3  13 3233.47 235.713   8
   0   3  13 3093.46 240.354  19
   0  -3  13 2849.79 183.269   7
   0   3  13 2837.55 208.912  12
   0   3  13 3367.52 246.805  15
   0   3  13 3435.80 215.151   6
   0  -3  13 3297.53 240.629  19
   0   3  13 3674.07 359.168   4
   0   3  13 3273.52 229.095   8
   0  -3  13 2749.88 304.776   1
   0   3  14 1230.52 160.302   8
   0  -3  14 1682.97 176.250   8
   0   3  14 1039.06 217.178   4
   0  -3  14 1328.85 178.603   2
   0   3  14 1372.72 167.593  19
   0   3  14 1290.59 140.524  10
   0   3  14 1406.33 147.101   6
   0  -3  14 1241.29 229.589   1
   0  -3  14 1335.36 149.713  15
   0  -3  14 1274.75 169.313  19
   0   3  14 1323.45 150.352  12
   0   3  14 1296.20 172.124  15
   0  -3  15 479.426 133.112  19
   0   3  15 439.593 113.270   8
   0   3  15 503.725 105.960  12
   0   3  15 388.043 123.262  15
   0   3  15 613.660 128.382  19
   0  -3  15 486.821 111.862  15
   0  -3  15 516.669 131.133   8
   0  -3  15 304.976 146.910   1
   0   3  15 431.122 172.170   4
   0   3  16 892.535 170.342  15
   0  -3  16 1054.61 152.713  15
   0   3  16 1211.99 181.301  19
   0  -3  16 1338.32 173.926   8
   0  -3  16 1023.01 171.628  19
   0   3  16 879.959 148.787   8
   0   3  17 40.3612 96.5797   8
   0   3  17 83.5821 128.446  15
   0  -3  17 145.990 118.138   8
   0   3  17-16.6932 119.829  19
   0  -3  17 99.0997 88.9273  15
   0  -3  17 50.2900 113.894  19
   0  -3  18 523.522 139.285   8
   0  -3  18 1011.02 185.397  19
   0   3  18 894.959 157.020   8
   0  -3  18 720.918 136.894  15
   0   3  18 737.112 168.535  15
   0   3  19 2392.11 245.339  15
   0  -3  19 2847.43 265.046  19
   0  -3  19 2207.07 198.246  15
   0  -3  19 2456.13 228.882   8
   0   3 -19 1937.88 320.066  23
   0   3  19 2588.01 220.800   8
   0   3  20 4700.01 332.136  15
   0   3  20 4093.31 265.494   8
   0  -3  20 4125.30 274.554   8
   0  -3  20 3577.57 304.732  19
   0  -3  20 4000.77 253.768  15
   0  -3  21 5019.76 293.084   8
   0  -3  21 5630.62 353.911  19
   0   3  21 5676.98 296.596   8
   0  -3  22 2005.54 203.903  19
   0   3  22 2134.75 208.697  15
   0  -3  23 3476.23 243.697  19
   0   3  23 3753.15 254.233  15
   0   3  24 5432.07 283.739  15
   0  -3  24 6099.01 293.072  19
   0  -3  25 2653.70 168.523  19
   0  -4   0 56463.9 1696.57  20
   0   4   0 62710.5 1699.00  23
   0   4   0 59641.0 1694.27  22
   0  -4   0 57840.1 1649.14   1
   0   4   1 4588.27 290.907  22
   0   4  -1 4717.57 291.994  22
   0   4   1 5454.94 297.400  23
   0  -4   1 4947.52 224.094   3
   0  -4   1 5155.49 301.403  20
   0   4  -1 4540.01 283.282  23
   0  -4  -1 5047.30 286.536  20
   0  -4   1 5049.12 278.697   1
   0  -4   2 2055.54 136.455   3
   0  -4  -2 1805.14 167.491  20
   0  -4   2 1716.80 181.572  20
   0  -4   2 1690.79 177.472   1
   0   4   2 1950.38 190.786  22
   0   4  -2 1731.84 170.509  22
   0   4   2 2077.81 178.860  23
   0   4   3 1419.91 158.509  23
   0  -4   3 1411.33 168.024   1
   0  -4   3 1250.56 168.731  20
   0  -4   3 1253.01 106.728   7
   0  -4  -3 1706.32 158.814  20
   0  -4   3 1243.76 117.456   3
   0   4   3 1772.07 187.920  22
   0   4   4 12.5974 73.8440  23
   0  -4   4 57.5487 53.8899   3
   0  -4   4 179.098 104.895   1
   0   4   4 106.874 92.2442  22
   0  -4   4 60.1766 93.5281  20
   0  -4  -4 54.7561 76.1239  20
   0  -4   5 135480. 3650.10   2
   0  -4   5 141008. 3689.82   1
   0  -4   5 137902. 3489.55   7
   0  -4  -5 137463. 3599.20  20
   0   4   5 134432. 3639.72  23
   0   4   6 26453.4 920.482  23
   0  -4  -6 26559.1 874.477  20
   0  -4   6 26327.4 784.045   7
   0  -4   6 26209.5 921.007   2
   0   4  -6 28247.4 978.163  23
   0  -4   6 26415.2 954.961   1
   0   4   6 25757.5 945.559   4
   0  -4   7 30394.3 886.425   7
   0   4   7 28834.7 1025.88  23
   0  -4  -7 31568.8 983.756  20
   0   4   7 30865.3 1084.67   4
   0   4   7 29210.2 859.850   6
   0  -4  -8 7317.17 371.276  20
   0   4   8 6668.38 430.227   4
   0   4   8 7804.11 300.210   6
   0  -4   8 7788.83 424.148   2
   0  -4   8 7254.55 305.843   7
   0  -4  -9 15661.1 620.507  20
   0  -4   9 16353.7 697.194   2
   0  -4   9 15902.4 543.567   7
   0   4   9 16862.8 536.111   6
   0   4   9 15865.7 737.190   4
   0   4  10 51041.0 1727.19   4
   0  -4  10 51953.8 1731.51   1
   0  -4  10 52075.5 1456.22   7
   0   4  10 53925.1 1451.43   6
   0  -4 -10 51555.9 1554.79  20
   0  -4  10 53006.8 1666.03   2
   0  -4  11 95.5321 70.3524   7
   0   4  11 99.3040 62.5047   6
   0  -4  11 193.984 81.9718  19
   0  -4 -11 111.513 69.3378  20
   0   4  11 179.178 118.643   4
   0  -4  11 200.915 124.827   1
   0   4  11 163.142 90.9056  15
   0  -4  11 356.542 126.545   2
   0   4  11 204.208 82.6856   8
   0   4  11 53.0387 77.7814  12
   0   4  12 17489.7 624.666   8
   0  -4  12 16824.4 831.171   1
   0  -4  12 16666.4 642.349  19
   0   4  12 17412.3 590.236   6
   0   4  12 17022.1 843.005   4
   0  -4  12 17807.6 763.501   2
   0   4  12 17200.1 618.943  13
   0   4  12 16314.3 618.313  12
   0   4  12 16470.2 630.580  15
   0  -4  12 16722.9 583.314   7
   0   4  13 1729.74 179.880  10
   0  -4  13 1983.98 194.331   8
   0   4  13 1691.72 267.276   4
   0  -4  13 2543.37 321.253   1
   0  -4  13 1531.85 211.897   2
   0   4  13 1682.73 177.719  12
   0   4  13 1904.53 198.231  15
   0   4  13 1599.12 151.024   6
   0   4  13 1729.02 176.476   8
   0  -4  13 2007.67 196.798  19
   0   4  14 883.042 144.342   8
   0  -4  14 589.922 141.742  19
   0  -4  14 764.735 147.189   8
   0   4  14 555.252 182.902   4
   0  -4  14 582.919 140.661   2
   0   4  14 676.056 127.044  12
   0  -4  14 671.992 185.190   1
   0   4  14 655.917 121.722  10
   0   4  14 755.045 150.613  15
   0   4  14 483.770 97.2534   6
   0   4  15 362.759 108.718  12
   0   4  15 349.118 165.938   4
   0   4  15 221.263 91.2939  10
   0  -4  15 380.489 183.070   1
   0  -4  15 393.069 130.555  19
   0   4  15 320.539 129.683  15
   0  -4  15 244.078 112.582   8
   0   4  15 482.768 124.880   8
   0   4  16 3169.66 394.509   4
   0   4  16 2783.95 222.118  10
   0   4  16 2911.73 232.534  12
   0   4 -16 2947.78 402.280  23
   0   4  16 3252.45 271.872  15
   0  -4  16 2903.29 251.787   8
   0  -4  16 3186.24 274.017  19
   0   4  16 3271.49 253.218   8
   0  -4  17 89.3840 113.415   8
   0   4 -17-74.5069 154.380  23
   0   4  17 67.0808 97.2955   8
   0   4  17-11.8226 80.3183  12
   0   4  17-22.8990 78.6830  10
   0  -4  17 102.042 102.738  19
   0   4  17-16.6432 121.923  15
   0   4 -18 6964.83 594.445  23
   0  -4  18 7428.08 430.885  19
   0  -4  18 7033.59 390.046   8
   0   4  18 7196.47 422.388  15
   0   4  18 7881.67 391.284   8
   0  -4  19 1445.72 175.422   8
   0   4 -19 1109.44 251.169  23
   0   4  19 1361.97 169.392   8
   0  -4  19 1536.24 202.551  19
   0   4  19 1642.45 208.558  15
   0  -4  20 220.518 122.265  19
   0   4  20 241.316 106.166   8
   0   4  20 186.607 125.971  15
   0  -4  20 315.583 109.790   8
   0   4  21 85.1396 104.999  15
   0   4  21-9.20712 75.1262   8
   0  -4  21 214.741 107.989  19
   0   4  22 37.2525 97.1410  15
   0  -4  22 99.7413 94.0499  19
   0  -4  23-10.3280 83.5743  19
   0   4  23 103.000 88.6441  15
   0  -4  24 5182.83 253.679  19
   0   4  24 4797.07 246.676  15
   0  -4  25 785.722 85.6241  19
   0  -5   0 47.6075 51.3434   3
   0   5   0 15.0270 86.6841  23
   0  -5   0 46.2371 100.991  20
   0   5   0 15.3620 87.1755  22
   0  -5   1 4037.97 216.940   3
   0   5   1 4507.85 300.956  23
   0  -5  -1 3942.37 291.060  20
   0   5  -1 4357.52 298.894  22
   0  -5   1 3734.46 274.226   1
   0   5   1 4187.94 302.410  22
   0   5  -1 4568.86 307.261  23
   0  -5   1 4139.93 309.486  20
   0   5  -2 2524.64 233.848  22
   0   5  -2 2623.44 245.460  23
   0   5   2 3199.54 267.590  22
   0  -5   2 2398.11 230.146   1
   0  -5   2 3012.87 180.525   3
   0  -5  -2 2824.95 240.622  20
   0   5   2 2982.30 243.649  23
   0  -5   2 2667.81 256.008  20
   0   5  -3 13815.6 622.752  23
   0   5   3 13350.3 620.509  22
   0  -5   3 13852.9 496.119   3
   0   5  -3 13618.0 593.292  22
   0   5   3 12800.8 583.471  23
   0  -5   3 14011.0 638.603  20
   0  -5  -3 13867.9 585.933  20
   0  -5   3 14803.3 625.072   1
   0  -5   4 2711.82 273.962  20
   0   5   4 2277.59 226.144  23
   0  -5  -4 3188.22 242.196  20
   0  -5   4 2368.51 164.617   7
   0  -5   4 2562.68 248.827   1
   0   5   4 2367.88 144.975   6
   0  -5   4 2491.44 179.175   3
   0   5   4 3115.45 276.315  22
   0   5   5 1588.70 116.710   6
   0  -5   5 1500.77 194.150   2
   0   5   5 1503.27 187.406  23
   0  -5  -5 1375.43 173.628  20
   0  -5   5 1133.38 193.897   1
   0  -5  -6 13746.9 576.742  20
   0   5   6 14096.0 620.510  23
   0  -5   6 13218.9 620.924   2
   0  -5   6 13341.0 478.396   7
   0   5   6 12736.9 443.069   6
   0  -5   6 14126.1 662.773   1
   0   5  -7 350.628 148.986  23
   0  -5  -7 321.752 98.3603  20
   0   5   7 367.579 132.648   4
   0  -5   7 65.3460 121.658   1
   0  -5   7 424.695 123.417   2
   0  -5   7 170.740 77.3146   7
   0   5   7 92.5753 99.8348  23
   0   5   7 240.272 65.1150   6
   0  -5   8 837.265 169.256   2
   0   5   8 809.346 172.394   4
   0  -5   8 800.721 193.281   1
   0   5   8 833.216 99.0671   6
   0  -5   8 810.961 112.082   7
   0  -5  -8 831.091 135.704  20
   0  -5  -9 25443.3 888.338  20
   0   5   9 22923.7 745.674   6
   0  -5   9 26671.5 1004.65   2
   0   5   9 23520.8 808.034  12
   0  -5   9 24083.9 814.602  19
   0  -5   9 24687.2 787.270   7
   0   5  -9 27173.2 1068.75  23
   0   5   9 26950.0 1052.16   4
   0   5  10 3168.25 195.783   6
   0  -5  10 3693.09 326.810   2
   0  -5  10 3040.80 229.265  19
   0  -5 -10 3517.51 267.572  20
   0   5  10 3588.68 232.892   8
   0   5  10 3017.31 219.642  15
   0   5 -10 3351.20 356.645  23
   0   5  10 3337.64 237.780  12
   0   5  10 3746.30 362.315   4
   0   5  11 2010.33 197.258  12
   0   5  11 1971.70 279.098   4
   0  -5  11 1558.42 258.949   1
   0  -5  11 2038.26 250.975   2
   0  -5  11 1713.61 180.656  19
   0   5 -11 1720.36 276.938  23
   0   5  11 1856.31 183.560  15
   0   5  11 1787.67 179.020   8
   0   5  11 2049.72 157.464   6
   0  -5  12 302.767 111.636  19
   0   5  12 485.672 115.661  10
   0  -5  12 375.937 165.683   1
   0  -5  12 317.526 121.613   2
   0   5  12 311.482 107.776   8
   0   5  12 222.260 74.7355   6
   0   5  12 498.213 119.926  15
   0   5 -12 319.012 162.104  23
   0   5  12 249.167 115.554  12
   0   5  12 341.971 151.274   4
   0   5  13 40.8544 86.9745  10
   0   5  13-40.9218 87.1179  12
   0  -5  13 33.0567 132.641   1
   0   5  13-33.1394 132.973   4
   0   5  13 100.832 90.4712   8
   0   5 -13 34.0753 157.879  23
   0  -5  13 73.9326 98.0926  19
   0   5  13 54.0058 91.7265  15
   0  -5  13 74.1881 102.483   2
   0   5  13 9.75052 65.4708   6
   0   5  14 19079.8 696.549   8
   0   5  14 18461.5 698.763  10
   0   5  14 18239.2 700.848  12
   0  -5  14 16794.1 810.928   2
   0  -5  14 18246.5 727.563  19
   0   5 -14 18160.3 976.263  23
   0   5  14 18144.3 637.225   6
   0  -5  14 18210.0 711.336   8
   0   5  14 18751.6 976.178   4
   0   5  14 17888.7 704.221  15
   0  -5  14 17625.5 955.107   1
   0   5  15 16256.1 637.291   8
   0  -5  15 16257.2 685.538  19
   0   5  15 16417.9 646.656  12
   0   5  15 16243.5 920.789   4
   0  -5  15 15414.3 651.339   8
   0   5 -15 16380.9 939.678  23
   0   5  15 16547.9 667.091  15
   0   5  15 16194.9 642.434  10
   0  -5  16 10113.6 494.983   8
   0   5  16 10209.2 480.237  12
   0   5  16 10573.3 483.174   8
   0   5  16 10832.3 485.580  10
   0  -5  16 10151.8 521.806  19
   0   5  16 10674.6 737.788   4
   0   5  16 11073.4 519.177  15
   0   5 -16 10454.5 737.547  23
   0   5 -17 5498.62 542.108  23
   0   5  17 4977.23 306.839  10
   0  -5  17 5143.13 332.323   8
   0   5  17 5550.15 353.732  15
   0   5  17 5197.91 317.914   8
   0   5  17 5137.28 312.177  12
   0  -5  17 5547.74 366.037  19
   0  -5  18 17261.4 715.672  19
   0   5 -18 16166.1 949.352  23
   0   5  18 16698.7 693.904  15
   0  -5  18 18682.3 693.911   8
   0   5  18 17068.4 634.302  10
   0   5  18 17483.2 652.800   8
   0  -5  19 64.4872 83.5352   8
   0  -5  19 271.390 135.433  19
   0   5  19 181.036 124.117  15
   0   5  19 216.975 97.6380   8
   0   5  20 1036.68 134.912   8
   0  -5  20 873.406 134.335   8
   0   5  20 1266.35 176.280  15
   0  -5  21-12.9947 84.0776  19
   0   5  21-49.4335 96.6663  15
   0  -5  22 1537.03 169.136  19
   0   5  22 1837.02 169.437  15
   0   5  23 478.444 95.2783  15
   0  -5  23 874.875 117.105  19
   0  -5  24 37.8206 53.8593  19
   0   6   0 18941.2 796.715  23
   0  -6   0 19344.7 640.431   3
   0   6   0 18237.7 790.570  22
   0  -6   0 18972.5 806.280  20
   0   6   1 18506.4 804.675  22
   0  -6   1 19386.5 641.757   3
   0   6   1 18322.4 787.495  23
   0  -6   1 19719.5 844.689  20
   0   6  -1 19608.1 803.015  22
   0   6  -1 20467.3 826.667  23
   0  -6  -1 18858.3 798.615  20
   0  -6  -1 19260.9 654.550   3
   0   6  -2 11821.8 579.925  22
   0  -6   2 11205.3 601.556  20
   0  -6  -2 11535.1 577.864  20
   0   6  -2 11506.9 598.992  23
   0   6   2 11939.5 611.126  22
   0  -6   2 11863.6 446.662   3
   0   6   2 11319.6 574.684  23
   0   6   3 82608.9 2181.71   6
   0  -6  -3 85133.5 2438.91  20
   0   6  -3 83920.7 2483.65  23
   0   6  -3 85476.3 2444.78  22
   0   6   3 87799.3 2468.52  23
   0  -6   3 81620.8 2450.88   1
   0  -6   3 81917.2 2237.01   3
   0   6   3 86771.5 2516.20  22
   0  -6   3 78638.3 2505.71  20
   0   6   4 1614.16 126.936   6
   0   6   4 1354.22 200.939  23
   0  -6  -4 1418.42 190.091  20
   0  -6   4 1660.54 224.042   1
   0   6  -4 1408.61 217.937  23
   0   6  -4 1404.49 206.399  22
   0  -6  -5 8043.60 466.065  20
   0  -6   5 8601.85 527.530   1
   0  -6   5 9391.43 532.284   2
   0   6  -5 9202.13 512.148  22
   0   6   5 9217.10 348.362   6
   0   6   5 9097.57 512.489  23
   0   6  -6 11376.4 594.117  22
   0  -6   6 11226.7 645.771   1
   0   6   6 11462.9 474.410  12
   0  -6  -6 11600.4 562.023  20
   0  -6   6 12310.9 638.371   2
   0   6   6 11374.9 419.900   6
   0   6   6 12024.5 612.518  23
   0   6   7 15547.7 581.944   8
   0   6   7 16979.1 614.904  12
   0   6   7 15437.1 780.367   4
   0   6   7 15838.9 538.699   6
   0  -6  -7 16134.7 691.204  20
   0  -6   7 15748.9 594.357  18
   0  -6   7 14570.5 768.906   1
   0   6   7 15488.6 737.035  23
   0  -6   7 17988.2 795.336   2
   0   6   8 624.245 92.9280   6
   0  -6   8 471.779 157.088   2
   0  -6   8 555.154 107.827  18
   0  -6   8 501.173 173.626   1
   0   6   8 594.302 155.902  23
   0   6   8 577.532 169.127   4
   0  -6  -8 493.478 119.138  20
   0   6   8 619.748 121.063   8
   0   6   9 2513.07 204.239   8
   0   6   9 2525.34 172.314   6
   0  -6   9 2298.58 196.392  18
   0  -6   9 2476.54 331.192   1
   0   6   9 2787.01 323.938   4
   0  -6  -9 1980.68 219.106  20
   0  -6   9 2553.29 295.211   2
   0   6  10 24631.6 1105.65   4
   0   6  10 24683.0 861.814  12
   0   6  10 23527.9 800.026  15
   0  -6  10 24939.0 1056.02   2
   0  -6  10 23643.4 1111.88   1
   0  -6  10 25408.1 866.157  19
   0   6  10 24341.6 831.300   8
   0   6  10 24181.8 775.175   6
   0   6 -10 24975.8 1134.76  23
   0  -6  10 24443.3 826.816  14
   0   6  11 3754.81 248.457  15
   0  -6  11 3218.62 236.408  14
   0   6  11 3936.82 262.438   8
   0   6  11 3046.52 249.442  10
   0  -6  11 3341.72 351.402   2
   0   6  11 3111.19 365.488   4
   0   6 -11 3178.37 385.506  23
   0   6  11 3591.15 214.917   6
   0   6  11 3280.36 261.295  12
   0  -6  11 3297.57 263.424  19
   0   6 -12 3940.26 431.697  23
   0   6  12 4442.92 284.074   8
   0  -6  12 4663.37 412.266   2
   0   6  12 4275.73 298.400  10
   0  -6  12 3524.29 245.608  14
   0  -6  12 3739.58 289.720  19
   0   6  12 4024.46 234.921   6
   0   6  12 3922.97 268.369  15
   0   6  12 4413.48 445.528   4
   0   6  12 4056.16 292.879  12
   0   6 -13 16229.8 946.945  23
   0   6  13 17721.5 675.041   8
   0   6  13 17828.2 670.369  15
   0   6  13 18534.9 711.472  10
   0  -6  13 16206.9 835.058   2
   0   6  13 17692.8 702.008  12
   0   6  13 16908.9 600.188   6
   0  -6  13 17467.5 709.936  19
   0   6  13 16943.4 933.218   4
   0  -6  14 26292.9 935.523   8
   0   6  14 26328.4 831.183   6
   0  -6  14 27190.5 966.474  19
   0   6  14 26082.2 908.170  15
   0   6  14 26750.8 911.471   8
   0   6  14 25571.9 1222.54   4
   0   6  14 26314.7 934.464  12
   0   6  14 26337.4 933.931  10
   0   6 -14 26451.2 1266.54  23
   0  -6  14 24620.3 1081.70   2
   0   6  15 10626.3 475.731   8
   0  -6  15 10065.5 509.214  19
   0   6  15 9811.19 482.472  10
   0   6  15 10641.6 725.641   4
   0   6  15 9739.35 470.349  15
   0   6  15 9354.75 474.162  12
   0   6 -15 9333.30 716.571  23
   0  -6  15 9708.16 487.135   8
   0  -6  16 1631.66 199.681   8
   0   6  16 2172.84 212.054   8
   0   6  16 2677.56 368.672   4
   0   6 -16 2058.02 348.259  23
   0   6  16 2027.21 208.400  12
   0  -6  16 2345.67 240.068  19
   0   6  16 1762.42 201.582  10
   0   6  16 2120.76 216.026  15
   0   6  17 6672.94 379.239  15
   0   6 -17 6187.36 568.968  23
   0   6  17 6116.33 354.377  12
   0   6  17 6996.77 365.465   8
   0  -6  17 6424.44 402.096  19
   0  -6  17 6875.62 382.410   8
   0   6  17 7323.70 380.917  10
   0   6  17 7351.79 603.454   4
   0  -6  18 729.955 166.900  19
   0   6  18 570.520 128.445  15
   0   6  18 594.674 120.662  10
   0  -6  18 756.320 142.542   8
   0   6  18 896.268 141.136   8
   0  -6  19 2847.88 244.098  19
   0   6  19 2345.41 210.656  15
   0   6  19 2186.32 187.304   8
   0  -6  19 2333.62 202.615   8
   0  -6  20 4957.11 307.490  19
   0   6  20 4962.94 288.942  15
   0   6  21 349.091 97.3765  15
   0  -6  21 470.086 111.048  19
   0  -6  22 5259.70 271.508  19
   0   6  22 5555.71 259.401  15
   0  -6  23 80.7030 66.8584  19
   0  -7   0-25.3172 114.329  20
   0  -7   0 24.0979 80.8982  18
   0   7   0 24.5088 116.358  22
   0   7   0-24.2401 106.545  23
   0   7   1 73158.1 2265.21  22
   0  -7   1 72628.5 2288.33  20
   0   7   1 70819.1 2226.89  23
   0  -7  -1 70059.7 1998.40  18
   0  -7   1 73499.2 2017.04  18
   0   7  -1 72206.8 2232.81  22
   0   7  -1 73484.5 2262.83  23
   0  -7  -1 67583.3 2228.91  20
   0   7  -2 11320.0 633.324  23
   0   7   2 10437.3 617.573  22
   0  -7  -2 9298.88 431.817   3
   0   7   2 10675.0 449.759  12
   0   7   2 11549.9 625.029  23
   0  -7  -2 12193.3 645.447  20
   0  -7  -2 11331.5 469.808  18
   0  -7   2 9835.01 627.758  20
   0  -7   2 11436.6 483.622  18
   0   7  -2 12161.4 631.132  22
   0   7  -3 69338.1 2207.53  23
   0   7   3 67344.1 1906.13  12
   0   7   3 68820.8 1839.49   6
   0   7   3 64953.8 2134.45  23
   0   7  -3 68196.9 2139.47  22
   0  -7  -3 66945.7 1903.51  18
   0  -7  -3 66068.4 1909.49   3
   0  -7  -3 75266.1 2182.43  20
   0   7   3 72353.1 2232.14  22
   0  -7  -4 1736.14 174.016  18
   0   7  -4 1965.86 271.590  23
   0   7   4 2241.62 197.740  12
   0   7   4 2163.83 269.509  23
   0   7   4 2065.97 152.451   6
   0  -7  -4 2114.14 257.042  20
   0   7  -4 2580.83 279.247  22
   0   7   5 2186.33 271.051  23
   0   7  -5 2958.55 339.546  23
   0   7   5 2165.82 161.319   6
   0  -7   5 2373.06 214.582  18
   0   7  -5 2534.96 286.161  22
   0  -7  -5 2467.79 193.934  18
   0  -7   5 2502.55 299.184   2
   0   7   5 2327.60 206.954  12
   0  -7  -5 1985.76 255.776  20
   0   7   6 156.712 60.5061   6
   0  -7   6 39.8520 81.4814  18
   0  -7   6 111.319 122.365   2
   0   7   6 198.003 105.092  12
   0   7  -6 143.181 104.939  22
   0   7   6 101.329 98.2497  23
   0   7  -6 238.260 148.010  23
   0  -7  -6 108.165 116.499  20
   0  -7  -7 1985.67 243.798  20
   0   7  -7 2111.96 265.706  22
   0   7   7 2358.14 312.328   4
   0  -7   7 2155.48 289.131   2
   0   7   7 2102.14 210.202  12
   0   7   7 2377.26 290.895  23
   0  -7   7 2228.81 209.623  18
   0   7   7 2336.25 167.142   6
   0  -7   8 14912.0 790.058   2
   0   7   8 14282.5 734.793  23
   0   7  -8 13881.1 712.251  22
   0   7   8 13179.8 497.010   6
   0   7   8 15766.3 829.795   4
   0  -7  -8 13612.8 660.728  20
   0   7   8 14702.9 604.391  12
   0  -7   8 14200.2 582.767  18
   0  -7   9 189.227 106.670  18
   0   7   9 60.2826 53.5855   6
   0   7  -9 75.6498 101.209  22
   0   7   9 66.4359 119.238   4
   0  -7   9 194.810 99.9068  14
   0  -7   9 121.790 126.199   2
   0   7  10 9816.93 398.984   6
   0  -7  10 9855.00 491.290  19
   0   7  10 9919.14 468.192   8
   0   7  10 10150.5 685.879   4
   0   7 -10 10675.3 717.519  23
   0  -7  10 10549.1 476.440  14
   0  -7  10 10295.9 659.383   2
   0  -7  11 3120.53 244.309  14
   0   7  11 3121.72 251.045   8
   0  -7  11 3010.40 351.899   2
   0   7  11 2909.46 262.269  12
   0   7  11 2965.42 381.637   4
   0  -7  11 2917.79 253.537  19
   0   7 -11 2539.46 371.325  23
   0   7  11 2954.32 260.646  10
   0   7 -12 12117.8 800.896  23
   0   7  12 12451.6 532.422   8
   0   7  12 12611.6 786.118   4
   0   7  12 12660.5 569.633  12
   0  -7  12 11240.1 503.083  14
   0   7  12 11524.8 553.443  10
   0  -7  12 11180.4 549.111  19
   0  -7  12 11330.5 702.678   2
   0   7 -13 322.344 200.397  23
   0  -7  13 256.514 103.196  14
   0   7  13 303.478 171.542   4
   0  -7  13 400.538 159.851   2
   0  -7  13 266.881 134.154  19
   0   7  13 349.418 129.821   8
   0   7  13 482.947 119.308  15
   0   7  13 463.434 147.777  10
   0   7  13 493.707 144.946  12
   0   7  14 24613.4 1173.52   4
   0   7  14 23142.5 867.962  12
   0   7 -14 23515.2 1190.85  23
   0  -7  14 23352.5 881.421  19
   0   7  14 22447.0 803.291  15
   0   7  14 23894.6 877.350  10
   0   7  14 23301.1 831.360   8
   0   7 -15 2385.64 370.917  23
   0   7  15 2038.94 222.823  10
   0   7  15 1934.67 194.156  15
   0   7  15 2123.50 332.402   4
   0  -7  15 1969.00 232.014  19
   0   7  15 1993.46 212.211  12
   0  -7  15 2073.75 216.869   8
   0   7  16 185.046 153.461   4
   0   7  16 250.135 123.014  12
   0   7  16 225.997 105.006  15
   0  -7  16 203.785 103.523   8
   0  -7  16 196.177 127.982  19
   0   7  16 236.976 110.779  10
   0   7  17 19905.6 718.548  15
   0   7  17 20393.6 748.727  10
   0  -7  17 21801.2 759.547   8
   0  -7  17 19830.2 782.552  19
   0   7  18 14935.7 560.674  10
   0   7  18 13195.6 533.629  15
   0  -7  18 14421.4 558.708   8
   0  -7  18 14893.7 609.549  19
   0  -7  19 7930.82 354.698   8
   0  -7  19 8394.96 407.330  19
   0   7  19 7908.80 355.469  15
   0   7  20 18883.7 625.355  15
   0  -7  20 19965.2 688.457  19
   0  -7  21 12080.2 459.317  19
   0  -7  22 279.440 75.8162  19
   0  -8   0 1186.86 248.568  20
   0   8   0 1578.36 162.026  10
   0   8   0 1061.42 229.059  22
   0  -8   0 1426.49 179.236  18
   0   8   0 1621.36 257.765  23
   0   8   0 1322.58 157.260  12
   0   8   1 996.187 219.542  23
   0  -8  -1 564.649 127.775  18
   0   8   1 757.255 204.073  22
   0   8  -1 865.945 203.560  23
   0   8  -1 632.616 179.542  22
   0   8   1 590.985 113.720  12
   0  -8   1 792.365 147.572  18
   0  -8  -1 740.818 211.145  20
   0   8   1 693.471 129.834  10
   0  -8   2 2627.23 318.653   2
   0  -8  -2 2364.66 316.183  20
   0   8   2 2182.99 203.238  10
   0   8  -2 1997.87 279.856  22
   0   8   2 1864.25 190.641  12
   0  -8   2 2012.98 209.113  18
   0   8   2 2133.22 170.147   6
   0   8   2 1842.30 281.209  22
   0   8   2 2253.96 298.551  23
   0  -8  -2 2275.60 211.029  18
   0   8  -2 2174.38 302.106  23
   0  -8   3 604.821 136.982  18
   0   8   3 394.457 86.2924   6
   0   8  -3 470.654 160.054  22
   0  -8   3 154.117 143.209   2
   0  -8  -3 362.522 110.049  18
   0   8   3 478.510 126.661  12
   0   8   3 689.291 129.269  10
   0   8  -3 472.188 169.797  23
   0  -8  -3 532.993 174.702  20
   0   8   3 292.068 148.621  23
   0   8   4 513.848 126.689  10
   0   8   4 521.866 170.237  23
   0   8   4 453.610 88.5268   6
   0  -8  -4 597.173 178.167  20
   0  -8  -4 377.033 111.566  18
   0   8   4 347.413 110.146  12
   0   8  -4 485.741 180.971  23
   0   8  -4 300.571 133.194  22
   0   8   5 8199.68 352.126   6
   0  -8   5 7460.53 571.752   2
   0  -8  -5 7915.95 394.119  18
   0   8   5 8315.26 565.935  23
   0  -8  -5 7054.66 514.128  20
   0   8   5 8647.84 431.080  10
   0  -8   5 8316.98 441.081  18
   0   8   5 8439.81 427.465  12
   0   8  -5 8418.59 614.956  23
   0   8  -5 7695.68 529.351  22
   0   8   6 102.590 127.779   4
   0  -8   6 231.129 145.167   2
   0   8  -6 34.5890 129.245  23
   0   8  -6 241.036 141.516  22
   0  -8  -6 126.554 111.300  20
   0  -8   6 124.135 104.233  18
   0   8   6 150.928 112.802  12
   0   8   6 115.935 116.342  23
   0   8   6 136.044 106.264  10
   0  -8   7 6445.51 537.946   2
   0  -8   7 6478.47 387.912  18
   0   8   7 6879.81 516.976  23
   0   8   7 7324.89 577.107   4
   0   8   7 6763.96 393.758  12
   0   8   7 7049.76 399.333  10
   0   8  -7 7018.58 574.187  23
   0   8  -7 6051.68 463.066  22
   0   8   8 12918.0 589.683  10
   0   8  -8 12691.7 812.298  23
   0  -8   8 12624.3 583.625  14
   0   8   8 13436.7 812.570   4
   0   8   8 13472.6 599.862  12
   0  -8   8 13681.4 589.936  18
   0  -8   8 14057.0 802.405   2
   0   8   9 132.892 110.257  12
   0  -8   9 141.447 117.471  14
   0   8   9 166.842 117.290  10
   0  -8   9 172.224 147.180   2
   0   8   9 147.299 157.343   4
   0  -8  10 5930.22 372.710  19
   0  -8  10 5947.31 357.947  14
   0   8  10 5815.10 531.798   4
   0   8  10 5184.03 357.362  12
   0  -8  10 5975.05 520.444   2
   0   8  11 3100.40 403.938   4
   0  -8  11 3909.50 300.609  19
   0  -8  11 3157.54 391.001   2
   0  -8  11 3624.16 278.102  14
   0   8 -12 1656.99 310.672  23
   0   8  12 2033.13 325.723   4
   0  -8  12 1771.84 211.509  19
   0   8  12 1754.02 217.343  10
   0  -8  12 1866.16 294.071   2
   0  -8  12 1663.51 190.941  14
   0   8  13 1181.09 184.515  10
   0  -8  13 1298.32 190.072  19
   0   8 -13 1089.92 294.007  23
   0  -8  13 1052.27 146.429  14
   0   8  13 1337.50 190.107  12
   0  -8  13 1041.51 218.589   2
   0   8  13 722.582 217.510   4
   0  -8  14 834.711 168.759  19
   0   8  14 867.860 159.817  12
   0   8  14 1041.05 238.689   4
   0   8  14 1202.80 172.620  10
   0   8 -14 1192.33 267.952  23
   0   8  15 9068.73 458.048  10
   0  -8  15 8682.02 435.825   8
   0  -8  15 8737.54 462.067  19
   0   8  16 5890.34 347.707  10
   0  -8  16 6222.71 368.299  19
   0  -8  16 6853.21 357.554   8
   0  -8  17 1389.31 164.577   8
   0  -8  17 1552.68 186.045  19
   0   8  17 1595.90 175.630  10
   0   8  18 20936.8 689.102  10
   0  -8  18 18936.5 659.785   8
   0  -8  18 21010.2 727.614  19
   0  -8  19 2267.45 187.921  19
   0  -8  20 2772.67 186.667  19
   0  -8  21 6312.97 263.422  19
   0   9   0-10.2116 67.7417   6
   0   9   0 49.7946 78.4498  10
   0   9   0-34.3179 133.030  23
   0  -9   0 34.2269 127.852   2
   0  -9   0 98.4592 120.214  18
   0   9   0-33.3945 142.648  22
   0   9   1 10715.0 478.169  10
   0  -9  -1 9735.62 673.665   2
   0  -9  -1 10672.3 519.084  18
   0  -9   1 10426.8 520.417  18
   0  -9   1 10866.3 706.190   2
   0   9  -1 10967.1 692.888  22
   0   9  -1 10004.7 685.945  23
   0   9   1 9995.19 422.626   6
   0   9   1 10029.3 678.084  23
   0  -9   2 351.626 162.975   2
   0  -9  -2 166.284 137.888   2
   0   9  -2 190.627 143.542  22
   0  -9  -2 187.447 112.207  18
   0   9   2 307.755 108.542  10
   0   9  -2 245.962 174.637  23
   0   9   2 163.221 71.1725   6
   0  -9   2 203.371 116.549  18
   0   9   2-33.4568 138.717  23
   0  -9   3 12860.3 798.867   2
   0  -9   3 12942.9 596.123  18
   0   9  -3 13495.0 757.399  22
   0   9   3 12248.5 551.383  10
   0  -9  -3 12577.0 565.839  18
   0   9   3 12068.3 740.272  23
   0   9  -3 12246.8 787.332  23
   0   9   3 12892.6 559.957  12
   0   9   4 5026.11 466.167  23
   0   9   4 6137.29 366.893  12
   0   9  -4 6007.10 491.201  22
   0  -9  -4 5854.75 500.947  20
   0   9  -4 6296.12 543.983  23
   0   9   4 6235.84 365.097  10
   0   9   5 5911.45 363.472  12
   0   9   5 5955.68 499.931  23
   0   9   5 4479.27 471.770   4
   0   9  -5 4232.27 470.059  23
   0   9   5 5375.83 344.218  10
   0  -9  -5 4777.65 431.282  20
   0   9   6 10095.4 668.998  23
   0   9  -6 11589.0 778.740  23
   0  -9   6 11842.2 569.612  14
   0   9   6 11373.6 766.582   4
   0  -9   6 11752.6 762.704   2
   0   9   6 11928.9 553.868  10
   0   9   6 11546.9 548.407  12
   0  -9  -7 15021.7 590.805  14
   0  -9   7 14783.5 869.000   2
   0   9   7 15541.0 906.842   4
   0  -9   7 14929.8 658.650  14
   0   9   7 15053.7 654.657  10
   0   9   7 14701.2 648.272  12
   0   9  -7 14865.7 894.274  23
   0   9  -8 13384.9 854.867  23
   0   9   8 13047.1 603.464  10
   0   9   8 14242.8 625.186  12
   0  -9   8 13746.9 617.485  14
   0   9   8 12551.7 817.251   4
   0  -9   8 13367.5 825.725   2
   0   9   9 11919.5 578.270  12
   0   9  -9 12038.4 812.283  23
   0   9   9 12834.4 812.913   4
   0   9   9 11839.5 576.773  10
   0  -9   9 12639.3 582.320  14
   0  -9   9 13424.4 598.037  19
   0  -9   9 12180.4 780.427   2
   0  -9  10 5091.91 334.088  14
   0  -9  10 4949.62 484.996   2
   0  -9  10 5131.11 348.764  19
   0   9  10 5281.48 357.822  12
   0   9  10 5120.25 354.742  10
   0   9  10 5685.83 532.355   4
   0   9 -10 4594.52 505.503  23
   0   9  11 340.965 166.785   4
   0  -9  11 403.381 126.094  14
   0  -9  11 458.604 150.156  19
   0   9  11 325.479 133.140  10
   0   9  11 422.741 141.551  12
   0  -9  11 344.610 163.876   2
   0  -9  12 383.511 135.882  19
   0  -9  12 434.771 123.122  14
   0  -9  13 354.679 139.456  19
   0  -9  13 260.378 93.6477  14
   0   9  14 2423.27 231.643  10
   0  -9  14 1744.37 196.356   8
   0  -9  14 1991.78 213.233  19
   0   9  15 1174.95 166.456  10
   0  -9  15 838.450 136.063   8
   0  -9  15 786.850 152.361  19
   0  -9  16 3873.62 244.459   8
   0   9  16 3888.11 260.674  10
   0  -9  16 3919.96 264.119  19
   0   9  17 482.420 100.140  10
   0  -9  17 567.763 114.357  19
   0  -9  17 450.538 94.1230   8
   0   9  18 1397.64 127.137  10
   0  -9  18 1664.72 149.622  19
   0  -9  19 2928.98 178.344  19
   0  -9  20 258.049 58.0529  19
   0  10   0 65871.6 1834.43  10
   0  10   0 60205.3 2219.06  23
   0 -10   0 63646.8 2270.02   2
   0  10  -1 11251.7 751.521  23
   0  10   1 11582.7 502.787  10
   0 -10  -1 10401.8 723.413   2
   0  10   1 10552.1 727.298  23
   0 -10   1 12469.6 794.088   2
   0  10  -2 41627.0 1679.13  23
   0  10  -2 39762.3 1230.78   6
   0 -10   2 42938.1 1697.99   2
   0  10   2 41942.8 1636.01  23
   0  10   2 43656.3 1315.81  10
   0 -10  -2 40751.8 1642.36   2
   0 -10   2 43957.6 1401.80  14
   0  10   3 3503.68 397.745  23
   0  10  -3 3617.86 432.872  23
   0  10   3 3588.98 273.887  10
   0 -10  -3 4244.19 315.083  14
   0 -10   3 4162.63 328.514  14
   0 -10  -3 3302.93 405.038   2
   0 -10   3 3396.41 425.487   2
   0 -10  -4 8817.77 451.574  14
   0  10   4 7760.04 594.266  23
   0 -10  -4 8549.63 624.227   2
   0  10  -4 7593.37 624.560  23
   0  10   4 9433.71 681.902   4
   0  10   4 8623.36 450.050  10
   0 -10   4 8333.16 477.993  14
   0 -10  -5 3278.80 261.769  14
   0  10   5 2758.87 252.093  10
   0 -10  -5 2870.56 360.412   2
   0  10  -5 2937.49 399.176  23
   0  10   5 3295.44 416.167   4
   0  10   6 36837.9 1598.94   4
   0 -10   6 37222.4 1587.10   2
   0  10   6 38924.7 1277.62  10
   0 -10  -6 38708.6 1222.03  14
   0 -10  -6 39228.7 1509.04   2
   0  10  -6 38802.7 1617.25  23
   0 -10   6 42075.7 1330.60  14
   0  10   7 4767.08 483.995   4
   0 -10   7 5345.73 358.071  14
   0 -10  -7 4425.37 415.132   2
   0  10   7 5004.91 336.083  10
   0 -10   7 3845.10 445.719   2
   0 -10  -7 4525.66 282.097  14
   0  10  -7 3684.78 441.645  23
   0  10   8 363.495 135.095  10
   0  10  -8 386.861 183.895  23
   0 -10   8 479.552 191.305   2
   0 -10   8 352.933 134.055  14
   0  10   8 338.398 165.521   4
   0 -10   9 1962.08 222.551  14
   0  10   9 1928.68 220.720  10
   0 -10   9 2338.64 231.240  19
   0 -10  10 2752.85 237.366  19
   0 -10  10 2270.34 220.189  14
   0 -10  11 349.471 116.779  14
   0  10  11 215.907 124.015  10
   0 -10  11 424.784 135.115  19
   0 -10  12 1609.48 192.674  19
   0  10  12 1778.89 201.506  10
   0 -10  12 1544.92 166.595  14
   0 -10  13 1839.61 194.129  19
   0 -10  14 1582.43 170.879  19
   0 -10  14 1597.12 164.686   8
   0 -10  15 94.2220 87.4646  19
   0  10  15-10.6751 79.0032  10
   0 -10  15 147.746 75.8917   8
   0 -10  16 4659.30 227.225   8
   0  10  16 5131.38 262.902  10
   0 -10  16 5311.78 268.867  19
   0 -10  17 3681.87 202.621  19
   0  10  17 3523.42 192.064  10
   0 -10  18 1285.86 106.237  19
   0 -11   0 68.0420 114.223  14
   0 -11  -1 2383.10 239.943  14
   0  11   1 2310.20 200.563  10
   0 -11   1 2647.81 259.718  14
   0 -11  -2 70224.5 2035.65  14
   0 -11   2 69864.8 2064.31  14
   0  11   2 68881.4 1959.42  10
   0  11   3 24316.5 852.040  10
   0 -11   3 24151.7 925.231  14
   0 -11  -3 25846.8 901.336  14
   0  11   4 13.7755 97.8460  10
   0 -11  -4 99.0396 94.9998  14
   0 -11   4-17.2399 122.451  14
   0 -11  -5 1373.88 173.067  14
   0  11   5 1582.55 191.979  10
   0  11   6 2873.20 243.486  10
   0 -11  -6 3203.13 229.176  14
   0 -11   7 3976.18 298.884  14
   0 -11   7 3869.14 281.111  19
   0  11   7 3352.59 262.489  10
   0 -11   8 740.236 147.392  19
   0 -11   8 879.594 151.572  14
   0  11   8 744.102 145.264  10
   0 -11   9 6792.53 366.339  19
   0  11   9 6827.45 371.210  10
   0 -11   9 6126.36 355.223  14
   0 -11  10 3230.84 240.161  14
   0 -11  10 3240.22 243.983  19
   0  11  10 3396.76 249.872  10
   0 -11  11 2978.62 224.790  19
   0  11  11 3112.73 229.397  10
   0 -11  12 7456.00 360.219  19
   0  11  12 7774.76 372.089  10
   0 -11  13 329.875 86.1615   8
   0  11  13 310.255 94.7325  10
   0 -11  13 237.298 88.2454  19
   0 -11  14 19.3937 53.5847   8
   0 -11  14 57.2198 74.3160  19
   0  11  15 1693.36 134.339  10
   0 -11  15 1796.95 136.585  19
   0 -11  16 1038.89 92.4015  19
   0 -12   0 5941.97 348.575  14
   0 -12   1 171.033 118.139  14
   0 -12  -1-13.4442 102.365  14
   0 -12  -2 20647.5 748.555  14
   0 -12   2 21337.8 782.478  14
   0 -12   3 26589.2 920.370  14
   0  12   3 25902.8 825.894  10
   0 -12  -3 26460.5 871.701  14
   0  12   4 49.7660 77.8621  10
   0 -12  -4 85.4693 80.5898  14
   0 -12   4 13.9990 103.582  14
   0 -12  -5 2145.14 169.991  14
   0  12   5 1917.71 173.437  10
   0 -12   6 82.1828 98.0665  19
   0  12   6 10.3866 79.8073  10
   0 -12   7 143.843 98.6205  14
   0 -12   7 177.912 95.0489  19
   0  12   7 92.5581 75.4064  10
   0 -12   8 3260.87 217.972  19
   0 -12   8 2596.98 206.307  14
   0  12   8 2863.89 205.758  10
   0 -12   9 732.419 122.142  19
   0 -12   9 538.495 108.068  14
   0  12   9 760.027 118.002  10
   0 -12  10 1233.90 134.791  19
   0  12  10 1457.09 140.788  10
   0  12  11 47.7079 64.3463  10
   0 -12  11 124.262 67.3260  19
   0 -12  11-13.7667 57.9433   8
   0  12  12 75.6647 59.2130  10
   0 -12  12 47.4341 47.3089   8
   0 -12  12 59.4870 60.1053  19
   0 -12  13 374.455 66.9718  19
   0  12  13 298.816 63.3300  10
   0 -13   0 37.2273 74.0670  14
   0 -13  -1 1243.47 135.770  14
   0 -13   1 1098.36 138.755  14
   0 -13  -2 645.780 97.5546  14
   0 -13   2 614.293 112.642  14
   0 -13   3 1922.29 169.738  14
   0 -13  -3 2109.70 148.017  14
   0 -13   3 2044.01 163.321  19
   0 -13   4 59.3478 73.4901  19
   0 -13   4-18.7502 82.4163  14
   0 -13   5 3247.74 197.680  19
   0 -13   6 5950.05 271.835  19
   0 -13   7 4961.28 236.795  19
   0 -13   8 2007.58 136.132  19
   0 -13   9 2694.49 150.814  19
   0 -13   9 2815.56 142.178   8
   0  13   9 3050.69 151.818  17
   0 -14   0 1384.98 92.1872  19
   0 -14  -1 8924.10 305.188  19
   0 -14   1 9605.40 309.558  19
  -1   0   0-3.48428 31.2768   2
   1   0   0-2.83314 29.9490  23
   1   0   1 2323.79 98.4756  20
  -1   0   1 2338.01 126.928   2
  -1   0   1 2098.80 111.053   3
  -1   0  -1 2174.90 100.423   2
  -1   0  -1 2297.28 129.303  21
   1   0  -1 2342.10 92.6966  23
   1   0  -2 258572. 6397.17  23
  -1   0   2 264168. 6472.16   2
  -1   0  -2 260038. 6476.44  21
   1   0   2 266765. 6420.50   4
   1   0   2 261226. 6395.35  20
  -1   0   2 268382. 6409.35  22
  -1   0   2 264605. 6420.45   4
  -1   0   3 462885. 11397.1   4
  -1   0   3 466572. 11424.7   3
   1   0   3 456359. 11346.5  20
  -1   0  -3 451678. 11440.2  21
   1   0   3 479951. 11400.3   4
  -1   0   4 18151.3 557.110   4
   1   0   4 18208.4 571.754   1
   1   0   4 18666.4 561.480   4
  -1   0   5 216227. 5432.97   4
   1   0   5 212362. 5433.96   4
   1   0   5 215811. 5428.49   1
  -1   0   5 217073. 5442.25   2
  -1   0   6 77285.1 2174.58   2
   1   0   6 81026.7 2166.54   1
   1   0   6 85801.1 2196.73   4
  -1   0   6 81375.7 2189.06   4
   1   0   7 281.417 86.8779   1
  -1   0   7 502.508 96.0723   2
   1   0   8 33430.8 1018.82   1
   1   0   8 32749.1 925.873   6
  -1   0   8 32828.5 1035.19   2
  -1   0   9 71954.1 2073.75   2
   1   0   9 76298.5 2066.75   1
   1   0  10 1230.54 155.419   1
  -1   0  10 1194.11 156.419   2
   1   0  11 5384.17 226.074   7
   1   0  11 6168.71 345.953   1
  -1   0  11 5793.02 347.321   2
   1   0  12 76.6411 80.9952   1
   1   0  13 37362.9 1134.84   8
  -1   0  13 36190.6 1119.94  15
   1   0  13 35502.1 1119.63  19
   1   0  13 36767.5 1133.67  15
   1   0  13 36350.5 1211.88   1
  -1   0  13 36923.6 1130.66  19
  -1   0  14 570.143 120.331  19
   1   0  14 988.187 158.718   1
   1   0  14 659.802 134.003  15
   1   0  14 672.520 132.138   8
  -1   0  14 926.416 139.097  15
   1   0  14 932.925 141.916  19
  -1   0  15 25450.7 887.716  19
  -1   0  15 25472.7 882.334  15
   1   0  15 26423.7 894.570   8
  -1   0  15 23865.2 814.809   8
   1   0  15 26282.3 953.753   1
  -1   0 -15 27276.2 1140.01  21
   1   0  15 25684.2 891.983  15
   1   0  15 24722.9 880.458  19
   1   0  16 11695.4 543.304  15
  -1   0  16 12068.9 540.614  15
   1   0  16 12197.8 547.514  19
   1   0  16 11942.6 538.328   8
  -1   0  16 11263.5 474.853   8
  -1   0  16 12862.1 556.329  19
  -1   0 -16 12868.9 744.554  21
   1   0  17 8676.01 449.732  19
  -1   0  17 7922.89 379.900   8
  -1   0  17 8505.32 444.580  15
   1   0  17 8492.19 444.387   8
  -1   0  17 8185.92 443.988  19
   1   0  17 7986.55 449.935  15
  -1   0 -17 9561.05 643.860  21
  -1   0  18 36493.8 1138.19   8
   1   0  18 38217.5 1235.29   8
   1   0  18 38898.6 1256.27  15
  -1   0 -18 37265.6 1507.84  21
  -1   0  18 39933.6 1267.25  19
   1   0  18 36685.2 1238.37  19
  -1   0  18 36272.8 1225.64  15
   1   0  19 80080.7 2290.70   8
   1   0  19 79036.4 2309.76  15
  -1   0  19 81286.2 2308.69  15
  -1   0  19 81257.5 2323.76  19
   1   0  19 79730.9 2314.74  19
   1   0  20 3083.70 266.856  19
  -1   0  20 2743.91 254.316  15
  -1   0  20 3112.49 275.154  19
   1   0  20 3187.10 280.153  15
   1   0  20 3557.32 267.767   8
   1   0  21 3286.92 250.662   8
  -1   0  21 3693.67 280.722  19
  -1   0  21 3664.33 277.122  15
   1   0  21 3312.41 272.255  15
   1   0  21 2795.34 255.404  19
  -1   0  22 14435.3 608.957  19
   1   0  22 14526.0 607.325  19
   1   0  22 15635.9 581.791   8
   1   0  22 14622.8 600.610  15
  -1   0  22 15120.4 599.928  15
   1   0  23 163.742 96.2941  15
   1   0  23 159.947 96.3536  19
  -1   0  23 287.040 111.325  19
   1   0  23 255.917 90.6590   8
  -1   0  23 134.203 89.1235  15
  -1   0  24 2665.04 186.363  15
   1   0  24 2540.81 189.195  15
   1   0  25 783.018 97.7124  15
   1  -1  24 6842.41 326.869  19
  -1   1  24 6611.23 318.906  15
   1  -1  24 6758.40 301.691  15
  -1   1  23 3891.16 260.067  15
   1  -1  23 3728.01 240.321  15
   1  -1  23 3567.36 253.568  19
   1  -1  23 3909.15 234.496   8
   1  -1  22 7350.60 367.586   8
   1  -1  22 7652.47 382.145  15
  -1   1  22 8020.86 409.571  15
   1  -1  22 7175.11 389.146  19
   1  -1  21 10190.0 484.256  15
   1  -1  21 10547.1 507.014  19
  -1   1  21 10625.4 520.724  19
  -1   1  21 11049.7 516.348  15
   1  -1  21 10862.0 489.404   8
  -1   1  20 5131.80 351.171  19
   1  -1  20 6043.28 357.317  15
   1  -1  20 5012.37 345.097  19
  -1   1  20 5737.00 362.587  15
   1  -1  20 5502.45 341.050   8
  -1  -1 -20 5060.58 491.542  21
  -1   1  19 3196.02 281.861  19
  -1  -1 -19 3751.43 426.886  21
   1  -1  19 3575.79 290.509  15
  -1   1  19 3562.53 298.297  15
   1  -1  19 3274.22 282.737  19
   1  -1  19 3419.18 277.179   8
   1  -1  18 2876.63 251.857   8
   1  -1  18 3141.69 272.528  19
  -1  -1 -18 2386.93 360.101  21
   1  -1  18 3071.67 267.589  15
  -1   1  18 2733.46 209.813   8
  -1   1  18 2803.40 258.339  19
  -1   1  18 2886.95 266.567  15
  -1   1  17 47601.0 1517.92  19
  -1   1  17 50757.0 1530.03  15
   1  -1  17 48422.7 1511.14   8
   1  -1  17 48890.6 1520.03  19
  -1   1  17 48073.1 1415.94   8
   1  -1  17 48205.5 1504.51  15
  -1  -1 -17 50695.8 1876.83  21
  -1  -1 -16 35591.0 1450.37  21
  -1   1  16 32611.9 1034.15   8
  -1   1  16 34921.3 1128.47  19
   1  -1  16 32605.8 1116.38  19
   1  -1  16 35250.8 1247.44   1
  -1   1  16 33484.5 1122.10  15
   1  -1  16 33401.2 1117.48   8
   1  -1  16 33845.2 1115.11  15
  -1   1  15 9968.15 428.634   8
   1  -1  15 10832.5 578.069   1
   1  -1  15 10397.8 485.599   8
   1  -1  15 10615.6 484.680  15
  -1   1  15 10494.2 485.293  19
  -1   1  15 10870.1 496.149  15
   1  -1  15 10480.3 489.169  19
   1  -1  14 2749.97 228.514  15
  -1   1  14 2736.81 227.699  15
   1  -1  14 3230.97 243.062  19
  -1   1  14 2984.64 232.126  19
   1  -1  14 3016.10 292.710   1
   1  -1  14 3325.13 245.966   8
   1  -1  13 142.059 93.4573   8
  -1   1  13 46.9932 79.8753  15
   1  -1  13 162.231 59.0777   7
   1  -1  13 183.445 97.2784  15
  -1   1  13 115.338 83.7036  19
   1  -1  13 103.784 78.4037  19
   1  -1  13 155.833 119.431   1
   1  -1  12 397.447 128.587   1
   1  -1  12 331.099 63.6382   7
  -1   1  11 72301.1 2198.68   4
   1  -1  11 71711.4 1903.53   7
   1  -1  11 76212.6 2138.20   1
   1  -1  10 28348.0 942.165   1
  -1   1  10 28458.0 985.876   4
   1  -1  10 26894.7 753.310   7
   1  -1   9 4753.69 200.689   2
   1  -1   9 5074.84 233.477   6
  -1   1   9 4905.48 321.796   4
   1  -1   9 5132.18 314.961   1
   1  -1   8 60379.8 1609.32   2
  -1   1   8 62973.8 1796.61   4
   1  -1   8 63695.6 1777.51   1
   1  -1   8 62480.1 1639.58   6
   1  -1   7 144381. 3687.50   1
   1  -1   7 139190. 3529.87   2
  -1   1   7 140859. 3691.28   4
   1  -1   6 54655.5 1525.24   1
  -1   1   6 55125.5 1520.91   4
   1  -1   6 52578.1 1391.98   2
   1  -1   5 63215.2 1596.95   2
  -1  -1  -5 61023.2 1552.99  20
  -1   1   5 65785.2 1702.46   4
  -1  -1  -4 215257. 5261.40   2
   1  -1   4 230257. 5376.14  20
  -1   1   3 567969. 13642.1  22
  -1   1   3 531351. 13618.9   4
   1  -1   3 529828. 13651.9   1
   1   1  -3 554706. 13622.7  23
  -1  -1  -3 557783. 13548.9   2
   1  -1   3 565238. 13618.2  20
   1   1  -2 66572.6 1684.39  23
  -1   1   2 63159.2 1664.17   4
  -1  -1  -2 63739.7 1634.49   2
  -1   1   2 67021.3 1717.56  21
  -1   1   2 67268.5 1693.97  22
   1  -1   2 61472.9 1673.68  20
   1  -1   2 65404.1 1707.46   1
  -1  -1  -1 99920.0 2364.03   2
  -1   1   1 92585.0 2401.96  21
   1  -1   1 97140.5 2401.94   1
  -1   1   1 87994.6 2336.99   3
   1   1  -1 95976.5 2387.51  23
   1  -1   1 91826.6 2384.11  20
  -1   1   0 21952.4 592.012   3
  -1   1   0 23202.4 658.435  21
  -1  -1   0 24052.6 648.749   2
  -1  -1   0 23206.7 652.987  21
   1   1   0 23087.0 658.478  23
  -1   1  -1 97273.2 2426.46  21
   1   1   1 91460.5 2445.12  23
  -1  -1   1 97857.3 2438.78   3
  -1  -1   1 91701.1 2429.74   2
  -1  -1   1 96537.0 2413.70  21
  -1   1  -2 65270.8 1697.55  21
  -1  -1   2 65343.7 1719.23   2
  -1  -1   2 65878.5 1683.64  21
   1   1   2 61694.4 1725.66  23
   1  -1  -2 66915.2 1725.65  20
   1   1   2 67736.1 1684.54   4
  -1  -1   2 61601.3 1709.45   3
  -1  -1   3 531259. 13274.8  21
  -1   1  -3 536907. 13291.5  21
  -1  -1   3 492311. 13299.9   3
   1   1   3 553196. 13343.2  23
   1   1   3 583993. 13292.5   4
   1   1   4 232571. 5802.97   4
  -1  -1   4 234830. 5827.24   3
  -1   1  -4 227167. 5797.20  21
   1   1   5 70001.6 1855.22   4
  -1   1  -5 65173.0 1837.43  21
  -1  -1   5 71125.6 1872.66   2
   1   1   6 56930.8 1507.75   1
  -1   1  -6 55334.4 1533.86  21
   1   1   6 54498.5 1543.93   4
  -1  -1   6 54846.9 1526.94   1
  -1  -1   6 51702.8 1544.11   2
  -1  -1   7 141732. 3646.38   1
   1   1   7 142412. 3611.03   1
  -1  -1   7 140123. 3669.81   2
  -1   1  -7 136952. 3660.08  21
   1   1   7 139489. 3679.76   4
   1   1   8 65087.1 1841.58   4
  -1  -1   8 63039.1 1782.38   1
   1   1   8 62426.0 1741.71   1
  -1  -1   8 64228.8 1811.34   2
  -1  -1   9 5038.21 305.451   2
   1   1   9 4964.27 268.538   1
   1   1   9 4684.62 319.071   4
  -1  -1  10 25588.0 937.475   2
   1   1  10 27576.1 820.260   6
   1   1  10 26899.5 878.090   1
   1   1  10 28780.3 1006.28   4
  -1   1 -11 75128.3 2191.22  21
   1   1  11 72844.3 1984.34   6
  -1  -1  11 73743.6 2142.79   2
   1   1  11 73671.9 2058.17   1
   1   1  11 76672.6 2244.88   4
  -1  -1  12 415.096 113.684   2
   1   1  12 352.096 95.2702   1
   1   1  12 350.597 83.8146   6
  -1   1 -12 383.333 125.735  21
  -1  -1  13 243.692 96.9896  19
   1   1  13 173.884 77.9102   8
  -1   1 -13-22.3622 89.7956  21
  -1  -1  13 330.489 107.660   2
   1   1  13 142.852 79.8870   6
   1   1  13 137.912 90.7451  19
   1   1  13 105.423 69.7015   1
  -1  -1  14 3016.95 227.892  15
  -1   1 -14 3352.69 320.675  21
  -1  -1  14 2969.43 233.688  19
  -1  -1  14 3304.24 286.812   2
   1   1  14 2864.43 228.469   8
   1   1  14 2824.50 213.492   6
   1   1  14 2605.90 217.820  19
  -1  -1  15 10989.7 498.133  19
   1   1  15 10748.9 489.650   8
  -1   1 -15 10449.7 622.998  21
  -1  -1  15 10126.3 469.155  15
   1  -1 -15 11758.0 635.112  20
  -1  -1  15 10194.1 438.366   8
   1   1  15 10938.6 493.316  19
  -1  -1  16 36303.6 1143.63  19
   1   1  16 33714.8 1119.84  19
  -1  -1  16 32833.7 1096.67  15
  -1  -1  16 33230.7 1044.95   8
   1  -1 -16 32452.7 1281.79  20
   1   1  16 33830.0 1116.50   8
  -1   1 -16 34312.0 1327.46  21
  -1  -1  17 49358.2 1532.29  19
   1   1  17 51005.3 1521.40   8
  -1  -1  17 47313.5 1426.55   8
  -1  -1  17 47912.3 1492.93  15
   1   1  17 50595.0 1532.16  19
   1   1  18 2803.97 244.047   8
  -1  -1  18 3064.90 256.379  15
  -1  -1  18 3103.29 266.799  19
  -1  -1  18 2197.78 196.962   8
   1   1  18 2953.85 265.233  19
  -1  -1  19 3188.88 284.299  19
  -1  -1  19 3654.14 278.102  15
   1   1  19 3573.33 303.712  15
   1   1  19 3248.30 272.013   8
   1   1  19 3141.95 276.957  19
   1   1  20 5637.12 363.697  19
   1   1  20 5111.25 353.929  15
   1   1  20 6003.89 356.123   8
  -1  -1  20 5132.45 330.522  15
  -1  -1  20 5897.65 369.799  19
  -1  -1  21 10757.1 487.330  15
  -1  -1  21 11607.6 530.534  19
   1   1  21 10935.1 517.504  19
   1   1  21 10099.6 473.216   8
   1   1  21 10792.9 519.143  15
   1   1  22 7548.80 370.070   8
  -1  -1  22 7887.99 381.405  15
  -1  -1  22 8158.98 422.521  19
   1   1  22 7995.61 416.289  15
   1   1  23 3596.62 251.732  15
  -1  -1  23 3722.81 261.137  19
  -1  -1  23 3837.76 233.481  15
   1   1  23 3520.13 221.275   8
  -1  -1  24 6631.96 328.764  19
   1   1  24 7063.58 332.685  15
   1   1  25 6995.83 298.212  15
   1   1  26 4126.74 176.249  15
   1  -2  24 8779.30 378.758  19
  -1   2  24 8949.78 383.901  15
  -1   2  23 775.453 143.396  15
   1  -2  23 639.308 126.124  19
   1  -2  23 569.811 106.753   8
   1  -2  22 14513.8 541.561  15
  -1   2  22 14062.6 587.592  15
   1  -2  22 14064.7 547.187   8
   1  -2  22 13150.1 569.650  19
   1  -2  21 15614.1 658.281  19
   1  -2  21 15917.5 636.444   8
   1  -2  21 17734.1 642.373  15
   1  -2  20 8537.25 457.998  19
   1  -2  20 8480.14 436.640   8
  -1   2  20 9145.51 471.423  19
   1  -2  20 8620.99 427.033  15
   1  -2  19 8822.22 472.127  19
   1  -2  19 9289.66 449.020  15
  -1   2  19 8122.78 376.899   8
  -1  -2 -19 8777.27 689.500  21
  -1   2  19 9089.39 483.782  19
   1  -2  19 9724.96 475.297   8
  -1  -2 -18 2047.43 362.604  21
  -1   2  18 2437.35 195.827   8
   1  -2  18 2636.58 240.261  15
   1  -2  18 2255.32 235.604   8
   1  -2  18 2525.22 251.268  19
  -1   2  18 2904.59 261.626  19
   1  -2  17 572.126 147.886   8
   1   2 -17 407.138 162.811  23
   1  -2  17 695.912 147.024  15
   1  -2  17 503.080 140.312  19
   1  -2  17 506.733 164.025   1
  -1  -2 -17 602.640 216.702  21
  -1   2  17 568.905 160.329  19
  -1   2  17 568.218 115.688   8
   1  -2  16 20671.4 782.540   8
  -1   2  16 20201.4 701.201   8
   1  -2  16 19685.8 750.132  15
  -1   2  16 20006.2 775.319  19
   1  -2  16 20944.1 930.854   1
   1  -2  16 20696.1 782.951  19
  -1   2  15 33776.0 1050.75   8
   1  -2  15 34798.2 1131.53  19
   1  -2  15 33145.7 1122.33   8
   1  -2  15 35237.2 1109.55  15
   1  -2  15 35880.6 1313.71   1
  -1   2  15 34896.0 1133.30  19
  -1   2  14 2416.86 218.048  15
   1  -2  14 2594.93 230.219   8
  -1   2  14 2947.34 232.975  19
  -1   2  14 2488.99 190.316   8
   1  -2  14 2703.19 175.544   7
   1  -2  14 2601.28 218.597  15
   1  -2  14 2423.56 287.940   1
   1  -2  14 2779.72 229.619  19
   1  -2  13 14291.5 568.232   8
   1  -2  13 14503.6 563.966  19
   1  -2  13 14020.1 489.120   7
  -1   2  13 13902.4 556.508  19
   1  -2  13 14607.8 701.878   1
  -1   2  13 15306.7 764.373   4
  -1   2  13 13139.1 552.009  15
   1  -2  13 13536.0 538.176  15
   1  -2  12 21396.9 889.937   1
  -1   2  12 21486.8 923.824   4
   1  -2  12 21580.4 679.421   7
  -1   2  12 22844.9 760.380  15
  -1   2  11 20728.8 870.613   4
   1  -2  11 20527.5 638.360   7
   1  -2  11 19386.4 659.097   2
   1  -2  10 89052.3 2408.62   2
   1  -2  10 92705.6 2606.47   1
  -1   2  10 92654.7 2623.28   4
   1  -2  10 91595.6 2370.61   7
   1  -2   9 83472.4 2088.37   7
   1  -2   9 82030.5 2136.08   2
  -1   2   9 86565.6 2325.37   4
   1  -2   9 88120.9 2323.44   1
  -1   2   8 76022.9 2025.05   4
   1  -2   8 70915.7 2002.76   1
   1  -2   8 73121.5 1816.68   7
   1  -2   8 72454.5 1866.01   2
   1  -2   7 19411.7 710.659   1
   1  -2   7 20081.6 617.272   2
  -1  -2  -7 18244.5 534.500  20
  -1   2   7 19887.2 708.209   4
  -1  -2  -6 36795.4 967.226  20
   1  -2   6 37259.3 1049.26   2
  -1   2   6 38354.7 1143.98   4
   1  -2   5 137113. 3314.79  20
  -1   2   5 120814. 3290.69   4
  -1  -2  -5 122230. 3139.40  20
   1   2  -5 141693. 3321.51  23
   1  -2   4 452344. 10749.5  20
   1   2  -4 463462. 10759.6  23
   1  -2   4 443080. 10769.1   1
  -1   2   4 436483. 10740.3   4
  -1   2   4 460312. 10781.4  22
  -1  -2  -3 3329.81 135.901  20
   1   2  -3 3789.50 212.208  23
   1  -2   3 3576.30 203.807  20
  -1   2   3 3626.37 147.311  23
   1  -2   3 3469.45 205.658   1
  -1   2   2 116119. 2840.31  23
   1   2  -2 109508. 2832.11  22
   1   2  -2 115689. 2940.68  23
  -1  -2  -2 118745. 2853.08  20
  -1  -2  -1 440248. 10229.0   2
  -1  -2  -1 424389. 10243.1  21
   1   2  -1 400261. 10175.1  22
  -1   2   1 424418. 10181.5  23
   1   2  -1 423195. 10268.3  23
   1  -2   0 999999. 23589.3  20
   1   2   0 928784. 23578.6  23
  -1  -2   0 992328. 23536.4  21
  -1   2   0 928571. 23541.1  21
   1  -2   0 995427. 23539.4   1
  -1  -2   0 908539. 23545.4   2
   1   2   1 423525. 10259.1  23
   1  -2  -1 430725. 10252.3  20
   1  -2  -1 394602. 10169.2   1
  -1  -2   1 411242. 10232.1   2
  -1   2  -1 407840. 10191.8  21
  -1  -2   1 421598. 10175.8  21
  -1  -2   2 118128. 2985.89   2
   1   2   2 107733. 2993.77  23
   1  -2  -2 116946. 2989.00  20
   1  -2  -2 116696. 2885.24   1
  -1   2  -2 114851. 2923.01  21
  -1  -2   2 115088. 2897.16  21
  -1  -2   3 3672.77 153.051  21
   1  -2  -3 3411.90 122.692   1
  -1   2  -3 3902.46 174.833  21
  -1  -2   3 3620.88 211.750   2
   1  -2  -3 3391.47 217.586  20
  -1   2  -4 427008. 10907.3  21
   1  -2  -4 436091. 10991.1  20
  -1  -2   5 125885. 3403.25   3
  -1  -2   5 131734. 3424.74   2
  -1   2  -5 124474. 3329.70  21
   1   2   5 141538. 3422.27   4
  -1  -2   5 129991. 3423.27   1
   1  -2  -5 135077. 3423.78  20
  -1  -2   6 38228.4 1155.20   1
  -1  -2   6 38098.1 1156.69   3
  -1   2  -6 35976.7 1073.86  21
   1  -2  -6 37666.6 1149.16  20
   1   2   6 37097.4 1144.47   4
  -1  -2   6 39633.8 1162.85   2
   1   2   7 18787.8 597.406   6
  -1  -2   7 21550.3 740.227   2
  -1   2  -7 19382.7 660.572  21
  -1  -2   7 20825.1 733.537   1
   1   2   7 19911.0 730.727   4
   1  -2  -7 21235.6 734.530  20
   1   2   7 20452.9 643.861   1
  -1  -2   8 75784.5 2067.37   2
   1   2   8 71950.0 2067.57   4
   1   2   8 72993.8 1898.38   6
   1   2   8 72632.6 1933.96   1
  -1   2  -8 69902.0 1980.52  21
  -1  -2   8 71167.8 2051.34   1
   1  -2  -8 69200.6 2039.74  20
   1   2   9 83925.7 2222.61   1
  -1   2  -9 83632.4 2299.83  21
   1  -2  -9 83016.2 2360.59  20
   1   2   9 84970.0 2392.48   4
  -1  -2   9 85396.3 2369.10   2
   1   2   9 83537.6 2193.11   6
  -1  -2   9 80048.1 2353.68   1
  -1   2 -10 91191.7 2527.96  21
   1   2  10 92671.4 2430.43   1
   1   2  10 91124.5 2408.12   6
   1  -2 -10 90005.5 2585.91  20
   1   2  10 91145.7 2627.96   4
  -1  -2  10 89320.9 2590.21   1
  -1  -2  10 95280.8 2598.18   2
   1  -2 -11 19215.7 810.940  20
  -1   2 -11 21088.9 789.180  21
  -1  -2  11 20308.0 819.456   2
   1   2  11 22619.0 891.150   4
   1   2  11 20245.8 680.806   1
   1   2  11 21103.7 680.776   6
   1   2  12 21451.2 746.439  15
   1   2  12 22032.2 718.739   6
   1   2  12 21215.7 708.734   1
  -1  -2  12 21124.2 854.720   2
   1  -2 -12 21240.3 868.530  20
   1   2  12 23629.5 951.594   4
  -1   2 -12 21356.5 831.459  21
   1  -2 -13 15303.7 700.417  20
  -1   2 -13 14677.4 656.130  21
   1   2  13 12952.6 540.594  19
   1   2  13 13084.5 550.521  15
   1   2  13 13536.8 547.277   8
  -1  -2  13 13811.5 654.912   2
   1   2  13 14365.6 534.117   6
   1   2  13 15083.5 765.529   4
  -1  -2  13 13953.0 557.974  19
   1   2  14 2571.12 196.109  13
   1   2  14 2747.10 232.765  15
  -1   2 -14 2353.24 258.003  21
   1  -2 -14 2574.11 284.436  20
   1   2  14 3228.17 242.292  19
  -1  -2  14 2963.80 286.600   2
  -1  -2  14 2832.16 214.333  15
   1   2  14 2650.25 194.064  12
   1   2  14 2708.62 210.907   6
  -1  -2  14 2844.41 231.252  19
  -1  -2  14 2380.77 190.441   8
   1   2  14 2902.73 232.637   8
   1   2  15 34945.1 1111.57  19
   1  -2 -15 34598.4 1268.89  20
  -1  -2  15 32048.2 1199.42   2
   1   2  15 34550.9 1102.67   8
  -1  -2  15 31810.3 1053.07  15
  -1  -2  15 33271.2 1106.68  19
   1   2  15 33340.6 1117.30  15
   1   2  15 35354.6 1076.77   6
  -1  -2  15 33326.1 1044.44   8
   1   2  15 32968.7 1025.22  13
  -1  -2  16 19157.5 706.689   8
   1   2  16 21299.1 777.742   8
   1   2  16 21071.3 785.174  19
   1   2  16 19827.0 784.038  15
  -1  -2  16 20077.3 784.589  19
  -1  -2  16 20892.6 744.574  15
  -1  -2  17 484.324 124.594  15
   1   2  17 534.290 157.018  19
  -1  -2  17 672.442 155.371  19
   1   2  17 689.915 164.077  15
  -1  -2  17 493.738 115.019   8
   1   2  17 498.948 137.202   8
  -1  -2  18 2569.80 209.369   8
   1   2  18 2390.13 246.514  19
   1   2  18 2370.02 249.560  15
  -1  -2  18 2909.45 265.421  19
  -1  -2  18 2259.88 222.722  15
   1   2  18 2131.61 226.285   8
  -1  -2  19 9182.93 442.874  15
  -1  -2  19 9423.68 488.198  19
   1   2  19 9266.03 464.341   8
   1   2  19 9511.46 492.621  19
   1   2  19 9104.50 493.745  15
  -1  -2  20 8932.45 474.633  19
  -1  -2  20 8878.98 424.752  15
   1   2  20 9574.54 459.442   8
  -1  -2  21 17181.5 690.734  19
  -1  -2  21 16913.7 621.020  15
   1   2  21 16234.8 635.103   8
  -1  -2  22 14601.0 595.428  19
   1   2  22 13907.3 540.672   8
  -1  -2  23 437.465 118.245  19
   1   2  23 631.453 105.737   8
  -1  -2  24 8848.76 381.193  19
   1   2  26 6315.29 233.199  15
   1  -3  25 296.901 68.8870  19
   1  -3  24 908.820 114.178  19
   1  -3  23 8253.56 346.060   8
   1  -3  23 8241.17 380.941  19
   1  -3  22 5179.27 312.620  19
  -1   3  22 5302.12 325.569  15
   1  -3  22 5384.00 294.743   8
   1  -3  21 5110.52 313.206   8
   1  -3  21 5476.37 341.416  19
  -1   3  21 5401.05 343.477  15
   1  -3  20 4669.47 325.296  19
  -1   3  20 4692.87 333.376  15
   1  -3  20 4219.57 298.451   8
   1  -3  20 4429.85 271.754  15
   1  -3  19 4210.95 314.868  19
   1  -3  19 3701.94 257.179  15
   1  -3  19 4241.78 305.046   8
  -1  -3 -19 3456.16 441.749  21
  -1   3  19 3634.19 300.001  15
  -1   3  19 3378.88 226.434   8
  -1  -3 -18 3660.00 455.147  21
   1  -3  18 3868.34 398.696   1
   1   3 -18 3561.78 395.840  23
  -1   3  18 4740.62 338.871  15
   1  -3  18 4154.47 313.594   8
   1  -3  18 4458.35 322.834  19
  -1   3  18 4002.44 252.468   8
   1  -3  18 4178.76 280.797  15
   1  -3  17 19852.2 740.808  15
   1  -3  17 20774.4 979.355   1
   1  -3  17 21664.2 812.538   8
  -1   3  17 20826.7 815.836  15
   1  -3  17 20224.8 803.234  19
  -1   3  17 20860.5 714.306   8
   1   3 -17 20722.3 998.146  23
  -1  -3 -17 19569.9 1110.25  21
   1  -3  16 33862.3 1317.82   1
   1  -3  16 32199.6 1093.38  19
  -1   3  16 30517.0 992.388   8
   1   3 -16 35297.9 1351.06  23
   1  -3  16 33117.0 1042.72  15
   1  -3  16 33147.8 1097.16   8
  -1   3  16 31182.1 1087.41  19
   1  -3  16 30380.2 956.752   7
  -1   3  16 32261.8 1096.16  15
   1  -3  15 12803.8 721.433   1
  -1   3  15 13134.0 574.580  15
  -1   3  15 12614.2 563.750  19
   1   3 -15 13251.2 739.462  23
   1  -3  15 13788.2 577.938  19
   1  -3  15 12027.0 473.199   7
   1  -3  15 12053.6 516.079  15
  -1   3  15 12567.5 498.336   8
   1  -3  15 13049.6 573.879   8
  -1   3  14 4380.05 255.367   8
  -1   3  14 4499.68 302.758  19
   1  -3  14 4212.35 268.778  15
   1  -3  14 4903.12 305.344  19
   1  -3  14 4399.54 400.903   1
   1   3 -14 3743.26 379.605  23
   1  -3  14 4003.10 235.365   7
   1  -3  14 4500.87 306.116   8
  -1   3  14 4446.39 300.445  15
  -1   3  14 3866.60 244.740  12
  -1   3  14 4308.16 418.637   4
  -1   3  14 4408.83 262.527  10
   1  -3  13 4551.67 391.359   1
   1  -3  13 3529.35 266.987   8
  -1   3  13 3558.51 233.027  12
  -1   3  13 3688.25 231.550   8
  -1   3  13 4076.36 252.513  10
   1  -3  13 4314.00 240.178   7
   1   3 -13 4671.61 400.397  23
  -1   3  13 4765.82 292.038  19
   1  -3  13 3878.35 249.252  15
  -1   3  13 4660.59 287.506  15
  -1   3  13 4887.38 415.149   4
   1  -3  13 4145.52 272.867  19
  -1   3  12 10590.3 464.498  19
   1  -3  12 10960.4 468.506  19
  -1   3  12 10779.4 471.696  15
   1  -3  12 11050.8 478.195   8
   1  -3  12 12018.1 638.417   1
  -1   3  12 12069.4 652.687   4
   1  -3  12 10709.6 473.390   2
   1  -3  12 11291.4 430.495   7
   1  -3  11 54894.6 1761.12   1
  -1   3  11 54225.9 1765.58   4
   1  -3  11 51666.4 1557.88   2
   1  -3  11 53837.1 1483.11   7
   1  -3  10 10592.0 465.327   2
  -1   3  10 10638.6 374.264   6
   1  -3  10 11045.8 409.265   7
  -1   3  10 11820.7 587.684   4
   1  -3  10 10439.9 563.552   1
   1  -3   9 19020.1 609.089   7
  -1   3   9 20143.2 801.149   4
   1  -3   9 19148.3 686.273   2
  -1   3   9 19123.1 574.465   6
   1  -3   9 19410.8 801.422   1
   1   3  -8 28287.8 977.400  23
   1  -3   8 26089.4 783.029   7
   1  -3   8 27852.1 872.562   2
  -1  -3  -8 25451.8 741.137  20
  -1   3   8 27057.6 958.865   4
   1   3  -7 12685.5 543.024  23
  -1  -3  -7 10841.8 367.720  20
   1  -3   7 12199.8 468.472   2
  -1   3   7 11133.7 514.985   4
   1  -3   7 11391.3 397.911   7
   1  -3   6 57107.9 1630.18   1
  -1  -3  -6 51521.0 1423.19  20
   1  -3   6 56884.7 1628.41  20
   1  -3   6 53456.3 1445.88   7
   1   3  -6 57839.1 1624.81  23
  -1   3   6 55602.0 1609.89   4
   1  -3   5 56869.8 1680.44   1
  -1   3   5 56228.7 1566.38  23
  -1  -3  -5 57029.0 1524.60  20
  -1   3   5 60045.7 1680.24   4
   1   3  -5 59736.7 1692.35  23
   1  -3   5 62209.0 1703.32  20
   1  -3   4 120950. 3348.44   1
   1   3  -4 132357. 3383.61  23
  -1   3   4 127478. 3247.63  23
  -1  -3  -4 125029. 3219.85  20
   1  -3   4 132952. 3369.26  20
   1   3  -3 126193. 3438.72  23
  -1   3   3 129591. 3340.54  23
   1  -3   3 130311. 3428.55   1
   1   3  -3 126942. 3331.23  22
  -1  -3  -2 37335.0 1034.48  20
  -1   3   2 36403.2 1021.48  23
   1   3  -2 35098.4 1011.97  22
   1  -3   2 37466.8 1088.01   1
   1   3  -2 37136.2 1109.77  23
  -1   3   1 80656.0 2144.11  22
   1  -3   1 78750.1 2119.72  20
  -1  -3  -1 74744.7 2054.78  20
   1  -3   1 79091.3 2080.21   1
  -1  -3  -1 78833.7 2064.49  21
   1   3  -1 79654.3 2125.56  23
   1   3  -1 73476.4 2033.42  22
  -1   3   1 80217.8 2045.31  23
  -1   3   0 12898.8 427.854  23
   1   3   0 11395.9 416.945  22
  -1  -3   0 12213.2 405.814  21
   1  -3   0 11550.2 462.019  20
   1  -3   0 11007.9 411.741   1
   1   3   0 10685.9 456.113  23
  -1  -3   0 12047.1 449.995   2
  -1  -3   1 79148.7 2121.77   2
  -1  -3   1 74947.2 2015.76  21
   1  -3  -1 81295.2 2141.59  20
   1  -3  -1 79442.8 2052.34   1
  -1   3  -1 81600.1 2092.08  23
  -1  -3   2 38060.3 1099.86   2
   1  -3  -2 34891.0 1095.86  20
  -1   3  -2 37648.5 1003.56  21
  -1  -3   2 38835.2 1085.35   3
  -1  -3   2 34730.2 960.713  21
   1  -3  -2 36878.4 995.637   1
   1  -3  -3 131729. 3207.50   1
  -1   3  -3 134499. 3239.38  21
   1  -3  -3 129880. 3370.01  20
  -1  -3   3 125669. 3365.76   2
  -1  -3   3 121305. 3180.48  21
  -1  -3   3 136781. 3351.65   3
  -1  -3   4 127115. 3264.39   3
   1  -3  -4 128513. 3288.30  20
  -1   3  -4 122379. 3135.99  21
   1   3   4 121069. 3311.49  23
   1   3   5 62044.5 1758.03  23
  -1  -3   5 59386.7 1693.73   3
   1  -3  -5 60216.9 1711.71  20
   1   3   5 59143.8 1711.14   4
  -1   3  -5 58751.5 1565.03  21
   1  -3  -6 59549.7 1639.63  20
   1   3   6 54906.4 1475.42   6
  -1  -3   6 56854.3 1640.85   2
   1   3   6 56379.4 1636.60   4
   1   3   6 59562.1 1687.58  23
  -1   3  -6 52316.5 1470.13  21
  -1  -3   6 53800.1 1611.85   3
  -1   3  -7 11787.7 417.501  21
  -1  -3   7 11850.9 523.357   3
   1  -3  -7 13089.0 544.088  20
   1   3   7 11571.3 530.188   4
   1   3   7 12030.0 414.356   6
  -1  -3   7 11449.9 542.784   1
  -1  -3   7 11747.3 534.680   2
   1   3   8 26459.2 800.328   6
  -1   3  -8 27080.9 819.708  21
   1   3   8 28750.2 984.464   4
   1  -3  -8 28520.7 960.176  20
  -1  -3   8 27637.1 989.053   1
  -1  -3   8 26212.8 959.288   2
   1   3   8 26106.3 802.072   1
   1  -3  -9 17966.3 744.968  20
  -1  -3   9 19562.1 801.751   1
   1   3   9 18985.8 602.006   1
  -1  -3   9 19146.1 780.832   2
  -1   3  -9 19376.6 641.079  21
   1   3   9 18637.3 780.327   4
   1   3   9 19410.5 619.027   6
   1   3  10 11057.3 572.359   4
  -1   3 -10 10376.9 431.521  21
  -1  -3  10 10689.9 549.640   2
   1   3  10 11122.9 414.082   6
   1   3  10 10203.6 373.913   1
   1  -3 -10 10036.4 519.362  20
   1   3  11 52108.2 1733.70   4
   1   3  11 53743.5 1483.84   6
  -1  -3  11 55808.6 1710.38   2
   1   3  12 10942.9 625.674   4
   1  -3 -12 10785.4 567.160  20
  -1  -3  12 10922.8 468.031  19
   1   3  12 10247.8 459.031  15
  -1  -3  12 11623.2 595.470   2
   1   3  12 11196.4 466.932   8
   1   3  12 10948.4 472.201  19
   1   3  12 10701.8 440.462   6
   1   3  13 4333.77 272.888   8
   1   3  13 4520.85 286.964  19
  -1  -3  13 3872.50 271.594  19
   1   3  13 4084.63 277.838  15
   1   3  13 4000.58 252.736  12
   1   3  13 3923.23 378.221   4
  -1  -3  13 3996.14 342.380   2
   1  -3 -13 3627.45 323.964  20
  -1  -3  13 4201.67 256.443   8
   1   3  13 3808.98 248.647  13
   1   3  13 4228.90 255.250   6
   1   3  14 4740.57 308.865  15
   1   3  14 4415.17 418.372   4
   1   3  14 4548.77 302.427  19
   1  -3 -14 4162.81 358.352  20
  -1  -3  14 4036.97 251.130  15
   1   3  14 4789.23 282.196   6
  -1  -3  14 4347.37 369.642   2
   1   3  14 4429.63 271.891  13
   1   3  14 4320.17 268.715  12
  -1  -3  14 4331.43 293.905  19
   1   3  14 4207.55 284.885   8
  -1  -3  14 4610.83 272.365   8
  -1  -3  15 12205.4 499.433  15
   1   3  15 13063.8 561.151   8
   1   3  15 13387.6 537.100   6
   1   3  15 13156.3 521.800  12
  -1  -3  15 12546.8 517.478   8
   1   3  15 12563.9 518.132  13
  -1  -3  15 13425.6 579.794  19
   1   3  15 13586.5 577.053  19
   1   3  15 12960.1 573.298  15
  -1  -3  15 11549.7 642.460   2
  -1  -3  16 30359.4 1009.30   8
   1   3  16 31205.8 1005.22  12
   1   3  16 32063.3 1092.78  15
   1   3  16 30844.6 1085.85  19
  -1  -3  16 32607.7 1009.42  15
   1   3  16 30373.2 1001.42  13
  -1  -3  16 32566.7 1094.98  19
   1   3  16 33859.0 1048.52   6
   1   3  16 33250.5 1078.49   8
  -1  -3  17 20019.0 800.445  19
   1   3  17 20538.4 717.158  13
   1   3  17 21724.8 793.825   8
   1   3  17 22884.6 838.170  15
   1   3  17 20364.4 716.715  12
  -1  -3  17 20211.7 723.266  15
  -1  -3  17 20015.4 730.458   8
  -1  -3  18 3521.09 247.907  15
   1   3  18 4244.77 316.300  15
  -1  -3  18 3737.39 255.426   8
   1   3  18 4086.70 292.934   8
  -1  -3  18 3414.80 294.640  19
   1   3  19 4021.25 286.755   8
  -1  -3  19 3714.98 249.089  15
   1   3  19 4032.80 317.671  15
  -1  -3  19 4467.94 320.648  19
  -1  -3  20 4675.93 329.749  19
   1   3  20 4403.37 293.229   8
   1   3  20 4583.47 331.167  15
   1   3  21 5146.17 339.897  15
  -1  -3  21 5149.40 334.339  19
   1   3  21 5284.16 306.918   8
   1   3  22 5448.66 288.706   8
  -1  -3  22 5422.99 323.463  19
   1   3  22 5126.15 317.701  15
  -1  -3  23 8069.02 382.532  19
   1   3  23 8473.15 388.399  15
   1   3  23 8055.75 334.691   8
  -1  -3  24 831.150 117.702  19
   1   3  24 1013.88 128.623  15
   1   3  25 348.982 72.9698  15
  -1  -3  25 255.438 65.5796  19
   1  -4  25 5226.16 209.950  19
   1  -4  24 3914.13 209.524  19
  -1   4  23 1564.42 161.115  15
   1  -4  23 1669.78 156.193  19
   1  -4  22 305.551 111.387  19
   1  -4  22 506.093 104.795   8
  -1   4  22 426.316 117.467  15
  -1   4  21 4092.24 286.059  15
   1  -4  21 3843.59 276.938  19
   1  -4  21 3810.60 260.657   8
  -1   4  20 617.563 156.835  15
   1  -4  20 655.192 142.533   8
   1  -4  20 847.488 163.080  19
   1  -4  19 1308.59 190.406  19
  -1   4  19 1147.34 187.806  15
  -1  -4 -19 1274.45 283.505  21
   1  -4  19 1333.71 178.130   8
  -1  -4 -18 9511.00 734.527  21
  -1   4  18 8777.13 473.129  15
   1  -4  18 10131.6 487.591   8
   1  -4  18 9170.30 478.788  19
   1   4 -18 7742.91 606.026  23
  -1   4  18 8177.44 381.369   8
  -1  -4 -17 840.233 260.886  21
   1  -4  17 1202.44 191.602   8
   1  -4  17 1516.62 198.369  19
  -1   4  17 1367.23 157.792  10
  -1   4  17 1119.33 147.754   8
   1  -4  17 1104.03 249.320   1
  -1   4  17 1391.88 210.611  15
   1   4 -17 1180.69 256.141  23
   1  -4  17 1151.18 145.862  15
   1  -4  16 12209.1 747.307   1
   1  -4  16 11963.5 563.989  19
   1   4 -16 11688.7 742.035  23
  -1   4  16 12585.8 568.709  15
   1  -4  16 12427.6 494.016  15
   1  -4  16 11825.5 561.098   8
  -1   4  16 11697.3 488.131   8
  -1   4  16 11833.4 507.625  10
   1   4 -15 26691.5 1169.29  23
  -1   4  15 24212.6 820.777   8
   1  -4  15 25600.6 916.766   8
   1  -4  15 25307.7 910.329  19
  -1   4  15 26429.3 1183.33   4
  -1   4  15 25113.1 903.186  15
   1  -4  15 24269.7 813.666   7
   1  -4  15 25354.4 1143.03   1
  -1   4  15 24450.0 849.822  10
   1  -4  14 15415.7 642.379   8
  -1   4  14 16414.4 614.353  10
   1   4 -14 16598.4 861.130  23
  -1   4  14 14598.9 567.164   8
  -1   4  14 15086.9 592.599  12
   1  -4  14 15542.1 576.321   7
  -1   4  14 15863.8 852.179   4
  -1   4  14 15508.4 640.044  15
   1  -4  14 15713.1 834.584   1
   1  -4  14 14918.7 629.267  19
  -1   4  13 6247.22 489.778   4
  -1   4  13 6220.87 326.326  12
   1  -4  13 6068.61 356.280   8
  -1   4  13 5939.79 345.043  15
  -1   4  13 5609.96 324.646  10
   1  -4  13 6574.96 357.915  19
  -1   4  13 5453.05 296.114   8
   1   4 -13 5907.42 486.366  23
   1  -4  13 6035.74 492.199   1
   1  -4  13 5746.39 304.886   7
   1  -4  12 1144.95 133.262   7
  -1   4  12 946.608 138.035  12
   1   4 -12 1267.64 229.822  23
   1  -4  12 1100.51 158.620  19
  -1   4  12 1025.89 129.376   8
  -1   4  12 1365.56 235.945   4
  -1   4  12 1125.50 154.869  15
   1  -4  12 935.444 156.067   2
  -1   4  12 900.312 134.588  10
   1  -4  12 982.256 217.134   1
  -1   4  11 2689.67 307.588   4
   1  -4  11 3392.08 217.354   7
   1  -4  11 3200.84 264.806   2
  -1   4  11 3468.82 231.550  12
  -1   4  11 3331.65 228.569  10
   1   4 -11 3443.98 347.037  23
   1  -4  11 3298.64 233.232  19
  -1   4  11 3016.58 226.447  15
  -1   4  11 3413.16 184.212   6
   1  -4  11 4168.67 371.108   1
  -1   4  10 5535.44 240.597   6
   1  -4  10 5703.17 282.222   7
   1  -4  10 5655.69 348.958   2
   1   4 -10 5836.29 424.772  23
  -1   4  10 6336.20 438.111   4
   1  -4   9 1093.70 123.095   7
   1   4  -9 1283.81 216.726  23
   1  -4   9 842.038 139.975   2
  -1   4   8 15187.8 685.718   4
   1   4  -8 15741.5 705.838  23
   1  -4   8 14182.0 508.218   7
   1  -4   8 15205.6 616.805   2
   1  -4   7 21217.9 678.719   7
   1  -4   7 22522.5 800.584   2
  -1   4   7 22548.4 864.857   4
  -1  -4  -7 20867.9 671.589  20
   1   4  -7 23920.9 891.439  23
   1  -4   7 22800.9 873.728   1
  -1   4   6 4891.93 331.058   4
   1   4  -6 4432.98 334.967  23
   1  -4   6 4952.99 347.007  20
   1  -4   6 4614.57 338.570   1
  -1   4   6 5011.76 273.401  23
  -1  -4  -6 4814.89 235.690  20
  -1   4   5 98777.6 2623.22  23
   1  -4   5 101366. 2754.18   1
   1   4  -5 92517.5 2756.91  23
  -1  -4  -5 95498.4 2582.81  20
  -1   4   4 15675.3 551.614  23
   1   4  -4 14568.2 630.652  23
   1   4  -4 14763.6 537.259  22
   1  -4   4 16222.4 631.881   1
  -1  -4  -4 14409.1 524.603  20
   1  -4   4 15871.1 499.661   7
  -1   4   3 4665.22 316.507  22
   1   4  -3 4124.93 232.358  22
  -1   4   3 4437.14 241.972  23
   1  -4   3 4633.30 292.673   1
  -1  -4  -3 4144.14 242.580  20
   1  -4   3 4286.18 200.415   7
   1   4  -3 4558.69 300.393  23
   1  -4   2 61910.7 1725.85  20
   1   4  -2 54016.6 1595.10  22
   1  -4   2 60507.0 1670.68   1
   1  -4   2 58141.1 1532.73   7
  -1  -4  -2 53100.0 1623.05  20
  -1   4   2 60620.5 1623.26  23
   1   4  -2 59610.0 1713.37  23
  -1   4   2 59322.8 1723.27  22
   1  -4   1 26778.0 879.657   1
   1   4  -1 26568.9 862.575  22
  -1   4   1 28129.2 957.416  22
  -1  -4  -1 27692.0 855.756  21
   1  -4   1 29726.2 954.859  20
  -1   4   1 29395.3 877.242  23
   1   4  -1 28723.6 948.817  23
  -1  -4  -1 26504.2 882.598  20
   1  -4   0 70547.3 1978.87   1
  -1   4   0 76114.1 2006.50  23
  -1   4   0 73728.3 2090.16  22
   1   4   0 72357.1 2002.12  22
   1  -4   0 77296.4 2082.78  20
  -1  -4   0 72950.2 1932.79  21
  -1  -4   0 69028.9 2037.98  20
  -1  -4   1 28801.5 879.790   3
  -1   4  -1 25924.8 867.560  23
  -1  -4   1 27881.5 771.042  21
   1   4   1 26584.1 885.250  22
  -1  -4   1 29783.9 920.083   2
   1  -4  -1 25505.6 905.125  20
   1  -4  -1 25600.4 822.944   1
   1  -4  -2 56007.8 1651.02  20
  -1  -4   2 64740.6 1633.11   3
   1  -4  -2 59206.0 1530.07   1
  -1   4  -2 61502.1 1641.97  23
  -1  -4   2 65511.5 1682.98   2
   1  -4  -3 4388.98 195.153   1
  -1  -4   3 4132.94 284.788   2
   1  -4  -3 4320.80 287.166  20
  -1  -4   3 3766.40 250.408   3
   1   4   3 4471.20 306.143  23
  -1   4  -3 4564.83 288.121  23
   1   4   4 16804.5 673.106  23
   1  -4  -4 15639.8 635.295  20
   1   4   4 15993.9 507.373   6
  -1  -4   4 15243.5 597.375   3
   1  -4  -5 96720.4 2664.91  20
   1   4   5 98540.2 2720.32  23
  -1  -4   5 93991.5 2617.85   3
   1   4   5 95608.2 2481.18   6
   1   4   6 4592.13 340.717  23
  -1  -4   6 5556.94 326.508   3
   1   4   6 5636.73 351.702   4
   1  -4  -6 5282.17 338.043  20
  -1  -4   6 4953.58 343.267   2
   1   4   6 5132.54 236.739   6
   1   4   7 21359.8 697.420   6
   1   4   7 23362.4 905.425  23
  -1  -4   7 22954.2 842.961   3
  -1  -4   7 24529.0 896.216   2
   1   4   7 22155.3 868.918   4
   1  -4  -7 23725.2 860.589  20
   1   4   8 14558.0 659.252   4
   1   4   8 14066.3 485.630   6
  -1  -4   8 14465.5 656.080   2
   1   4   9 1007.60 118.770   6
  -1  -4   9 1067.21 187.140   2
   1   4   9 1403.84 205.588   4
   1  -4  -9 1085.35 170.763  20
  -1  -4  10 7091.40 461.434   2
   1  -4 -10 6065.91 400.416  20
   1   4  10 5688.63 420.082   4
   1   4  10 5927.47 292.800   6
   1   4  10 6434.98 321.770   8
   1   4  11 3353.00 215.901   6
   1   4  11 3198.15 229.186  12
   1   4  11 3652.94 241.323   8
  -1  -4  11 3611.08 245.136  19
  -1  -4  11 3827.28 341.580   2
   1   4  11 3146.77 225.914  15
   1   4  11 3399.98 335.086   4
   1   4  11 3331.15 230.573  13
   1  -4 -11 3409.79 299.850  20
   1   4  12 1048.60 133.646   6
   1   4  12 1072.40 147.677  12
   1  -4 -12 1035.62 182.331  20
  -1  -4  12 972.987 184.513   2
  -1  -4  12 811.403 133.770  19
   1   4  12 952.519 206.790   4
   1   4  12 1013.89 147.048  15
   1   4  12 1109.73 145.897  13
   1   4  12 1363.46 164.461   8
   1   4  13 6248.52 495.816   4
   1   4  13 5738.11 333.219   8
  -1  -4  13 5844.24 319.478   8
   1   4  13 5453.24 320.987  12
   1   4  13 5906.77 330.922  13
   1   4  13 5740.08 334.527  15
   1  -4 -13 5506.13 404.659  20
  -1  -4  13 6250.94 352.264  19
   1   4  13 6481.37 326.601   6
  -1  -4  13 5830.70 439.962   2
  -1  -4  14 15115.4 637.150  19
   1   4  14 15639.2 627.431   8
   1   4  14 16071.7 600.975   6
  -1  -4  14 14737.6 587.774   8
   1   4  14 15696.4 634.352  15
   1   4  14 15626.1 857.956   4
   1   4  14 14990.6 607.264  12
   1   4  14 15866.6 613.047  13
  -1  -4  14 15191.3 777.138   2
  -1  -4  15 24527.6 849.934   8
  -1  -4  15 24885.1 911.302  19
   1   4  15 25065.9 862.355  13
   1   4  15 25592.0 896.606   8
   1   4  15 26000.8 861.613   6
  -1  -4  15 22545.9 1020.84   2
   1   4  15 25405.8 906.723  15
   1   4  15 25592.2 873.590  12
   1   4  15 25754.2 1186.24   4
   1   4  16 11619.8 512.603  12
   1   4  16 11726.0 499.187  10
   1   4  16 12608.0 553.868   8
   1   4  16 12293.4 517.318   6
  -1  -4  16 11983.8 562.231  19
   1   4  16 12196.8 518.525  13
  -1  -4  16 12129.2 513.632   8
   1   4  16 12115.6 566.248  15
   1   4  17 1283.43 163.275  12
   1   4  17 1693.42 199.976   8
  -1  -4  17 1324.82 164.361   8
   1   4  17 1456.56 157.653  10
   1   4  17 1542.58 208.348  15
  -1  -4  17 1268.02 180.210  19
  -1  -4  18 9061.72 415.296   8
   1   4  18 9242.44 480.575  15
  -1  -4  18 9644.93 493.019  19
   1   4  18 9148.27 454.421   8
   1   4  18 8508.03 404.879  12
   1   4  19 1140.79 169.808   8
  -1  -4  19 1163.68 175.430  19
   1   4  19 1148.70 183.469  15
   1   4  20 775.309 160.785  15
  -1  -4  20 753.225 146.993  19
   1   4  20 634.826 134.625   8
   1   4  21 4179.71 287.819  15
  -1  -4  21 4224.40 290.737  19
   1   4  21 4241.14 261.701   8
   1   4  22 333.248 116.086  15
  -1  -4  22 430.146 123.560  19
   1   4  22 435.773 99.2936   8
  -1  -4  23 1327.75 141.955  19
   1   4  23 1349.32 147.820  15
   1   4  23 1417.38 121.246   8
  -1  -4  24 3749.64 210.621  19
   1   4  24 4000.26 213.544  15
  -1  -4  25 5533.45 227.390  19
   1   4  25 6331.48 235.296  15
   1  -5  24 7863.26 294.607  19
   1  -5  23 1272.17 128.963  19
  -1   5  22 1375.38 154.048  15
   1  -5  22 1158.73 143.666  19
   1  -5  22 1167.49 126.997   8
  -1   5  21 489.209 121.771  15
   1  -5  21 757.811 126.941   8
   1  -5  21 577.447 125.586  19
   1  -5  20 84.0994 107.794  19
   1  -5  20 269.219 109.622   8
  -1   5  20 221.934 110.479  15
   1  -5  19 508.576 136.330   8
  -1   5  19 589.579 154.199  15
   1  -5  19 783.193 149.167  19
  -1   5  18 8843.53 386.303   8
   1  -5  18 9118.48 467.614   8
  -1   5  18 9422.59 473.166  15
  -1   5  18 9043.22 412.938  10
   1  -5  18 8957.96 473.664  19
  -1  -5 -18 9072.16 721.133  21
   1  -5  17 6559.75 402.882  19
  -1   5  17 7077.78 343.418   8
   1   5 -17 6247.28 552.195  23
  -1   5  17 6600.35 362.196  10
  -1   5  17 7780.11 426.083  15
   1  -5  17 7147.68 412.917   8
  -1  -5 -17 6714.41 620.455  21
   1  -5  17 6662.39 562.932   1
  -1   5  16 8202.22 411.397  10
   1  -5  16 8057.25 442.359  19
   1   5 -16 7317.82 601.286  23
   1  -5  16 8128.60 451.078   8
  -1   5  16 7989.87 375.190   8
  -1   5  16 7503.49 423.454  15
  -1   5  16 6149.39 557.107   4
   1  -5  16 7265.01 597.671   1
   1  -5  15 2643.50 246.476  19
  -1   5  15 2837.97 365.100   4
   1  -5  15 2985.78 265.614   8
  -1   5  15 3255.67 229.302   8
   1   5 -15 2971.54 385.261  23
  -1   5  15 3500.07 262.726  10
   1  -5  15 3218.41 403.260   1
  -1   5  15 2690.74 253.491  15
   1  -5  14 3239.77 388.499   1
  -1   5  14 3080.81 226.114   8
   1  -5  14 3096.19 231.132   7
   1  -5  14 3422.11 280.329   8
   1   5 -14 3474.56 407.928  23
  -1   5  14 3076.87 250.916  12
  -1   5  14 2329.64 327.211   4
  -1   5  14 3745.00 279.302  15
   1  -5  14 2859.83 256.913  19
  -1   5  14 3125.47 250.981  10
   1   5 -13 6912.61 554.094  23
   1  -5  13 6678.54 554.010   1
   1  -5  13 6939.28 392.232  19
  -1   5  13 7595.35 394.739  15
  -1   5  13 7145.09 350.536   8
  -1   5  13 7233.67 381.957  12
   1  -5  13 7123.02 359.733   7
  -1   5  13 6993.48 544.091   4
  -1   5  13 6602.91 371.405  10
   1  -5  12 1759.02 170.502  14
   1   5 -12 1537.79 273.834  23
   1  -5  12 2235.29 206.997  19
   1  -5  12 1824.61 224.824   2
  -1   5  12 2163.54 187.276   8
  -1   5  12 2081.73 202.755  10
   1  -5  12 2014.87 186.785   7
  -1   5  12 1931.64 199.393  15
  -1   5  12 1587.31 184.516  12
  -1   5  12 2355.58 311.669   4
   1  -5  12 2526.55 329.795   1
   1   5 -11 2766.98 343.930  23
  -1   5  11 2620.39 203.600   8
  -1   5  11 3070.59 342.458   4
   1  -5  11 3042.48 219.861   7
   1  -5  11 2856.11 223.748  19
  -1   5  11 3026.73 233.701  10
   1  -5  11 2690.28 204.404  14
   1  -5  11 3122.58 289.765   2
  -1   5  11 2672.12 216.055  15
  -1   5  11 2570.19 220.182  12
  -1   5  10 6021.91 299.888   8
   1  -5  10 5818.92 323.174  19
  -1   5  10 5678.45 318.386  15
  -1   5  10 5778.43 450.484   4
   1  -5  10 6228.12 316.563   7
  -1   5  10 6207.22 333.490  10
   1  -5  10 6325.29 408.701   2
  -1   5  10 5879.11 325.712  12
   1   5 -10 5989.91 469.947  23
  -1   5   9 9408.99 560.664   4
  -1   5   9 8628.79 407.690  10
   1   5  -9 9451.74 583.984  23
   1  -5   9 9640.93 513.358   2
  -1   5   9 8424.34 401.451  12
   1  -5   9 9427.72 413.900  19
   1  -5   9 9644.95 584.590   1
   1  -5   9 9261.34 398.579   7
  -1   5   8 9750.52 565.495   4
   1  -5   8 9701.95 520.868   2
   1   5  -8 9972.15 591.842  23
   1  -5   8 10487.2 593.166   1
   1  -5   8 10331.2 416.741   7
   1  -5   7 2009.62 223.519   2
   1   5  -7 2146.81 198.429  22
  -1   5   7 2281.82 257.168   4
   1  -5   7 2211.62 258.501   1
   1   5  -7 2194.78 265.281  23
   1  -5   6 2650.93 288.006  20
   1   5  -6 2812.62 288.976  23
   1  -5   6 2928.48 282.115   1
  -1   5   6 2958.60 278.012   4
   1   5  -6 2646.37 215.398  22
  -1  -5  -6 2428.38 188.601  20
  -1   5   6 2437.87 211.868  23
   1  -5   5 13671.2 629.083   1
  -1   5   5 12720.9 533.892  23
   1   5  -5 13066.5 639.233  23
   1  -5   5 13953.2 474.930   7
  -1  -5  -5 12376.2 508.641  20
  -1   5   5 11501.7 634.690  22
   1   5  -5 12555.0 522.322  22
  -1   5   4 68423.1 2133.84  22
  -1   5   4 68704.3 1993.35  23
   1  -5   4 72350.8 1892.59   7
  -1  -5  -4 68818.3 1985.85  20
   1   5  -4 70581.3 1979.56  22
   1   5  -4 70306.5 2123.81  23
   1  -5   4 74934.9 2104.40   1
   1  -5   3 3895.91 289.824   1
   1  -5   3 4448.98 335.907  20
   1   5  -3 3781.32 257.075  22
  -1   5   3 3969.60 269.600  23
   1  -5   3 4083.67 214.782   7
  -1   5   3 4442.76 337.222  22
  -1  -5  -3 4723.36 285.575  20
   1   5  -3 4324.03 335.146  23
  -1   5   2 49031.2 1500.52  23
   1  -5   2 53997.8 1563.18   1
   1  -5   2 51006.7 1396.03   7
  -1   5   2 54334.1 1640.32  22
  -1  -5  -2 46135.0 1543.09  20
  -1  -5  -2 53247.9 1507.02  21
   1   5  -2 47991.1 1493.70  22
   1  -5   2 56601.7 1643.52  20
  -1  -5  -1 761.956 142.124  20
  -1   5   1 1208.05 191.907  22
  -1   5   1 1049.22 145.857  23
   1   5  -1 826.201 131.730  22
   1  -5   1 909.724 138.550   1
   1  -5   1 958.952 100.458   7
   1  -5   1 884.103 165.258  20
  -1  -5  -1 1086.51 126.636  21
   1  -5   0 42916.5 1203.32   7
   1  -5   0 43746.4 1409.01  20
  -1   5   0 44934.8 1429.76  22
   1  -5   0 46038.5 1327.30   1
   1   5   0 42937.3 1341.78  22
  -1   5   0 45668.5 1352.26  23
  -1  -5   0 42368.5 1222.55  21
   1  -5  -1 895.824 162.896  20
   1  -5  -1 897.339 96.6256   7
   1  -5  -1 1033.86 131.055   1
  -1  -5   1 759.861 75.4477  21
  -1  -5   1 820.191 145.024   2
   1   5   1 880.481 150.532  22
  -1  -5   1 1197.59 144.392   3
  -1   5  -1 960.109 145.692  23
  -1   5  -1 903.282 169.838  22
  -1  -5   2 52422.4 1520.00   3
  -1  -5   2 48430.1 1567.20   2
   1  -5  -2 51434.9 1597.07  20
  -1   5  -2 51786.0 1564.95  23
   1  -5  -2 50675.5 1444.15   1
   1   5   2 53668.7 1626.88  23
  -1   5  -2 49521.5 1610.19  22
   1  -5  -3 4377.49 318.517  20
  -1  -5   3 4190.76 316.944   2
  -1  -5   3 4427.41 280.234   3
   1   5   3 4758.30 344.511  23
  -1   5  -3 3884.93 297.950  23
   1   5   4 70215.7 1908.71   6
  -1  -5   4 71894.4 2045.28   3
   1  -5  -4 74149.7 2128.97  20
  -1   5  -4 75616.8 2138.89  23
   1   5   4 72122.1 2159.19  23
  -1  -5   4 70350.7 2138.10   2
   1   5   5 13089.9 463.550   6
   1   5   5 12267.6 627.169  23
  -1   5  -5 13634.0 630.848  23
   1  -5  -5 12253.4 596.582  20
   1   5   6 2944.09 278.121   4
   1   5   6 2554.59 169.275   6
  -1  -5   6 2062.65 210.785   3
   1  -5  -6 2833.66 260.495  20
   1   5   6 2227.58 261.071  23
  -1   5  -6 3215.12 295.146  23
  -1   5  -7 1744.25 236.902  23
  -1  -5   7 1791.43 208.879   3
  -1  -5   7 2477.25 265.449   2
   1  -5  -7 1923.14 226.255  20
   1   5   7 2143.43 158.497   6
   1   5   7 2466.15 263.664   4
   1   5   7 2085.80 258.518  23
   1   5   8 11220.4 424.051   6
   1   5   8 9561.88 575.305  23
   1  -5  -8 9336.37 527.506  20
  -1  -5   8 10750.6 594.297   2
   1   5   8 10536.5 588.751   4
   1  -5  -9 8799.99 512.057  20
  -1  -5   9 9295.98 420.456  19
   1   5   9 9855.09 398.615   6
   1   5   9 8878.52 570.019   4
  -1  -5   9 9885.52 576.119   2
   1   5   9 9103.83 416.817  13
   1   5   9 9626.47 423.882  12
  -1  -5  10 6502.81 471.261   2
   1   5  10 5595.26 303.750   9
   1  -5 -10 6157.08 422.352  20
   1   5  10 5879.21 330.584  12
   1   5  10 6602.93 315.769   6
   1   5  10 6345.12 333.372   8
   1   5  10 7328.23 503.051   4
   1   5  10 6051.03 314.403  15
   1   5  10 6531.25 341.724  13
  -1  -5  10 6095.49 332.609  19
   1  -5 -11 3150.82 301.884  20
   1   5  11 2901.70 211.662   9
   1   5  11 2798.62 227.085   8
   1   5  11 3276.08 219.071   6
  -1  -5  11 3156.74 335.978   2
   1   5  11 3236.72 244.491  13
   1   5  11 3126.24 240.789  12
   1   5  11 2709.87 214.032  15
  -1  -5  11 3026.46 236.535  19
   1   5  11 2503.93 310.329   4
   1   5  12 2257.58 206.292   8
  -1  -5  12 1971.79 278.945   2
  -1  -5  12 2030.70 204.145  19
   1   5  12 1969.69 197.598  13
   1   5  12 2180.32 306.701   4
   1  -5 -12 1876.80 240.040  20
   1   5  12 1779.11 187.065  15
   1   5  12 2132.25 185.654   6
   1   5  12 2037.72 202.134  12
   1   5  13 7296.89 359.326   6
   1   5  13 6698.07 371.251  13
   1   5  13 6802.89 377.749   8
   1   5  13 7044.82 386.173  12
   1   5  13 6695.10 539.226   4
  -1  -5  13 7210.28 393.969  19
  -1  -5  13 6933.07 516.628   2
   1   5  13 6928.86 370.442  15
  -1  -5  14 3404.79 276.225  19
  -1  -5  14 3110.00 344.791   2
   1   5  14 2968.77 368.489   4
   1   5  14 3032.32 252.141  15
   1   5  14 3295.27 257.603  13
   1   5  14 3751.62 278.296   8
  -1  -5  14 2822.98 232.458   8
   1   5  14 3356.27 265.301  12
   1   5  14 3238.95 234.318   6
  -1  -5  15 3141.67 266.986  19
   1   5  15 3240.90 263.246   8
  -1   5 -15 2708.34 401.515  23
   1   5  15 3289.89 239.514   6
   1   5  15 3069.17 381.820   4
   1   5  15 2723.90 245.038  12
   1   5  15 3232.69 251.912  10
  -1  -5  15 2359.76 307.001   2
   1   5  15 2766.40 251.492  15
  -1  -5  15 3114.42 245.031   8
  -1  -5  16 8547.56 407.618   8
   1   5  16 8103.36 420.793  12
   1   5  16 7882.15 389.125   6
   1   5  16 6851.09 601.070   4
  -1   5 -16 7215.15 626.969  23
   1   5  16 8109.28 425.440   8
   1   5  16 8247.68 438.478  15
   1   5  16 8923.57 422.427  10
  -1  -5  16 7481.85 439.395  19
  -1  -5  17 6359.10 398.809  19
  -1  -5  17 6765.47 356.880   8
   1   5  17 7321.87 394.368   8
   1   5  17 6824.37 361.661  10
   1   5  17 6946.10 373.341  12
  -1   5 -17 6682.77 608.933  23
   1   5  17 6727.19 395.061  15
   1   5  18 9272.19 425.115  12
   1   5  18 9757.84 456.486   8
   1   5  18 9685.07 472.760  15
   1   5  18 8599.79 398.972  10
  -1  -5  18 9484.42 481.419  19
  -1  -5  18 8466.40 402.375   8
  -1  -5  19 810.397 158.335  19
   1   5  19 613.831 145.490  15
   1   5  19 736.604 150.104   8
  -1  -5  20 56.9092 98.9577  19
   1   5  20 251.735 111.278   8
   1   5  20 213.939 115.139  15
   1   5  21 764.791 121.752   8
   1   5  21 646.115 126.519  15
  -1  -5  21 735.978 136.053  19
   1   5  22 1273.02 126.115   8
  -1  -5  22 1333.40 151.417  19
   1   5  22 1353.16 147.556  15
  -1  -5  23 1139.89 125.820  19
   1   5  23 1411.07 132.550  15
   1   5  24 8017.83 289.367  15
  -1  -5  24 7733.98 294.964  19
   1  -6  23 1125.97 100.521  19
   1  -6  22 2934.85 189.937  19
   1  -6  21 2853.68 194.925   8
   1  -6  21 3068.20 217.522  19
   1  -6  20 2473.94 202.642   8
   1  -6  20 2997.62 229.549  19
  -1   6  20 2634.81 212.091  15
   1  -6  19 869.759 162.799  19
  -1   6  19 1062.37 159.891  15
   1  -6  19 881.184 150.387   8
   1  -6  18 8722.68 449.384  19
   1  -6  18 8436.77 437.326   8
  -1   6  18 8786.18 406.734  10
  -1   6  18 8160.32 422.319  15
   1  -6  17 4180.46 310.363  19
  -1   6  17 4100.60 281.499  10
   1  -6  17 4147.71 303.554   8
  -1  -6 -17 4064.04 483.865  21
  -1   6  17 4237.23 297.350  15
  -1   6  17 3936.13 434.570   4
  -1   6  16 9803.14 693.321   4
  -1   6  16 8922.76 454.160  15
  -1   6  16 9155.38 453.207  10
  -1  -6 -16 8204.90 697.601  21
   1   6 -16 9327.42 688.370  23
   1  -6  16 9148.64 476.373  19
   1  -6  16 9039.07 477.081   8
  -1   6  15 2318.24 227.908  15
   1   6 -15 2432.12 355.281  23
   1  -6  15 2075.25 223.812  19
  -1  -6 -15 2041.21 358.567  21
  -1   6  15 2346.53 227.559  10
  -1   6  15 2584.91 364.142   4
   1  -6  15 2144.84 238.607   8
   1  -6  15 2416.57 374.763   1
  -1   6  14 1627.87 178.379   8
  -1   6  14 2020.15 321.237   4
   1  -6  14 1795.99 218.624   8
  -1   6  14 1818.39 204.925  15
  -1   6  14 1529.97 200.043  10
   1  -6  14 1809.75 213.273  19
   1   6 -14 1840.05 325.472  23
   1  -6  14 2062.53 343.079   1
  -1   6  13 561.123 119.586   8
   1  -6  13 646.146 121.759  14
  -1   6  13 730.689 138.923  15
  -1   6  13 529.844 136.654  12
   1  -6  13 595.375 215.169   1
  -1   6  13 855.699 236.997   4
   1   6 -13 448.507 190.291  23
   1  -6  13 471.232 127.986  19
  -1   6  13 845.837 152.107  10
   1  -6  12 1114.07 145.855  14
   1  -6  12 1127.59 193.259   2
  -1   6  12 1027.40 239.239   4
   1  -6  12 898.421 149.402   7
   1  -6  12 1080.65 167.062  19
  -1   6  12 889.223 146.234  15
  -1   6  12 994.148 163.400  10
  -1   6  12 818.843 152.278  12
  -1   6  12 1079.23 145.827   8
   1   6 -12 935.602 245.664  23
   1  -6  11 724.695 131.898  14
  -1   6  11 966.506 146.589  15
   1  -6  11 759.127 141.837   7
   1   6 -11 961.654 231.449  23
   1  -6  11 883.141 151.080  19
   1  -6  11 987.665 190.749   2
  -1   6  11 522.046 192.247   4
  -1   6  11 977.176 159.905  10
  -1   6  11 810.508 151.255  12
  -1   6  11 684.413 124.408   8
  -1   6  10 991.603 142.273   8
   1  -6  10 1029.11 146.735  14
   1  -6  10 866.125 229.083   1
   1  -6  10 776.205 168.387   2
  -1   6  10 1037.61 155.575  10
   1   6 -10 1173.69 249.346  23
  -1   6  10 1236.92 240.921   4
  -1   6  10 859.602 132.238  15
   1  -6  10 1315.03 157.641   7
  -1   6  10 935.575 154.943  12
   1  -6  10 795.742 138.963  19
  -1   6   9 5014.09 284.359  15
   1  -6   9 5434.06 314.331  14
   1  -6   9 5472.15 408.638   2
  -1   6   9 5295.56 442.976   4
   1  -6   9 4978.26 301.170   7
   1   6  -9 5270.88 456.100  23
  -1   6   9 5355.02 321.041  12
   1  -6   9 5345.52 460.264   1
   1  -6   8 14413.8 567.349  14
   1  -6   8 13546.0 691.488   2
  -1   6   8 14698.9 755.441   4
   1   6  -8 13619.9 760.942  23
   1  -6   8 13436.6 742.945   1
   1  -6   8 13795.9 542.528   7
  -1   6   7 4558.06 322.238  23
   1  -6   7 4496.35 365.511   2
   1  -6   7 4906.16 288.957  14
  -1   6   7 4934.94 405.407   4
   1  -6   7 4323.03 391.626   1
   1   6  -7 4638.42 412.276  23
  -1   6   7 4572.62 286.495  10
  -1   6   6 542.558 151.701   4
   1   6  -6 590.803 118.147  22
  -1   6   6 291.112 96.6129  12
   1  -6   6 593.620 110.941   7
   1   6  -6 393.681 165.892  23
  -1  -6  -6 512.583 114.033  20
   1  -6   6 649.844 154.388   2
   1  -6   6 575.643 111.625  14
  -1   6   6 399.581 113.836  23
  -1   6   6 593.956 114.550  10
   1   6  -5 46283.1 1396.60  22
   1   6  -5 46479.9 1582.08  23
   1  -6   5 43878.9 1511.80   1
   1  -6   5 44317.4 1286.13   7
  -1   6   5 43158.8 1566.57  22
  -1  -6  -5 40961.1 1374.79  20
  -1   6   5 45669.8 1419.83  23
   1   6  -4 5631.21 344.919  22
   1  -6   4 6273.85 451.342  20
   1  -6   4 5550.24 283.224   7
  -1  -6  -4 5582.56 354.051  20
  -1   6   4 5382.80 423.783  22
   1  -6   4 5542.28 389.859   1
  -1   6   4 5729.83 359.145  23
   1   6  -4 6067.96 437.694  23
   1   6  -3 46638.9 1438.01  22
  -1  -6  -3 45015.0 1456.41  20
  -1   6   3 43013.4 1429.52  23
   1  -6   3 46941.0 1510.82   1
   1  -6   3 49236.9 1610.63  20
   1  -6   3 46358.9 1308.01   7
  -1  -6  -3 45044.8 1428.51  21
  -1   6   3 45434.1 1575.72  22
   1   6  -2 9744.67 490.756  22
   1  -6   2 9562.90 390.547   7
  -1  -6  -2 9687.60 448.584  21
   1  -6   2 9605.57 505.879   1
  -1  -6  -2 10426.9 523.950  20
  -1   6   2 9726.23 486.979  23
  -1   6   2 10585.1 586.513  22
   1  -6   2 9878.39 566.760  20
   1  -6   1 7498.66 424.645   1
   1   6  -1 8281.66 445.356  22
   1  -6   1 7875.90 491.201  20
  -1  -6  -1 8197.30 367.384  21
  -1   6   1 8167.81 504.595  22
   1  -6   1 7997.72 341.468   7
  -1   6   1 8375.97 449.764  23
  -1  -6   0 156155. 4141.24   2
   1  -6   0 156295. 4185.20  20
   1   6   0 164981. 4217.96  23
   1   6   0 161470. 4111.46  22
  -1   6   0 161629. 4209.97  22
  -1   6   0 163073. 4107.79  23
  -1  -6   0 150197. 4019.75   3
   1  -6   0 154529. 4045.15   1
   1  -6  -1 7741.76 480.567  20
   1  -6  -1 8808.23 417.386   1
  -1  -6   1 9054.14 498.608   2
  -1   6  -1 7810.74 451.985  23
   1   6   1 7635.55 487.546  23
  -1  -6   1 7739.62 407.548   3
  -1   6  -1 7498.33 487.250  22
  -1   6  -2 9529.92 564.763  22
   1   6   2 10400.5 579.909  23
  -1  -6   2 11254.0 578.486   2
  -1   6  -2 11050.5 551.627  23
   1  -6  -2 10162.1 556.832  20
  -1  -6   2 9600.55 470.390   3
  -1  -6   3 49333.5 1477.10   3
  -1   6  -3 49085.8 1617.23  22
  -1   6  -3 46983.7 1555.53  23
  -1  -6   3 48169.2 1588.04   2
   1  -6  -3 43941.3 1552.73  20
   1   6   3 47199.6 1605.81  23
  -1  -6   4 6271.78 435.142   2
   1  -6  -4 5998.01 415.570  20
  -1   6  -4 5461.83 400.382  23
  -1   6  -4 6074.92 432.819  22
   1   6   4 5477.21 271.136   6
   1   6   4 5696.32 420.022  23
  -1  -6   4 5765.30 353.129   3
   1  -6  -5 41840.9 1477.57  20
   1   6   5 44076.7 1540.93  23
  -1  -6   5 44202.3 1401.46   3
   1   6   5 44435.7 1260.98   6
  -1   6  -5 43962.5 1512.31  23
   1   6   6 799.824 124.885   9
  -1  -6   6 563.782 115.396  18
   1   6   6 710.255 119.445  12
   1   6   6 492.757 160.080   4
  -1  -6   6 627.910 144.177   3
   1   6   6 572.486 116.547  13
   1   6   6 619.628 118.102   8
  -1   6  -6 270.051 151.186  23
   1   6   6 577.471 99.7759   6
   1   6   6 693.176 172.998  23
   1  -6  -6 593.072 144.673  20
  -1  -6   7 4720.75 284.649  18
   1   6   7 5051.09 420.722  23
  -1   6  -7 5155.05 421.846  23
   1   6   7 4465.84 389.724   4
   1   6   7 4810.30 289.087  13
   1   6   7 4252.40 266.722   9
   1   6   7 4505.07 256.500   6
   1   6   7 5374.36 301.712  12
   1  -6  -7 5204.22 386.697  20
  -1  -6   7 4853.53 402.513   2
   1   6   8 13078.6 726.446  23
  -1  -6   8 13164.4 537.224  18
  -1   6  -8 13062.0 734.093  23
  -1  -6   8 14111.0 747.005   2
   1   6   8 13186.2 549.940  12
   1  -6  -8 13269.0 675.931  20
   1   6   8 13970.1 740.832   4
   1   6   8 14862.6 530.160   6
   1   6   8 13670.6 538.686   9
   1  -6  -9 4686.89 386.430  20
  -1   6  -9 5334.03 467.596  23
   1   6   9 5529.55 449.492   4
   1   6   9 5511.68 290.763   6
  -1  -6   9 5436.74 304.237  18
  -1  -6   9 4780.24 427.263   2
   1   6  10 1208.62 243.685   4
  -1  -6  10 965.367 138.080  18
   1   6  10 993.813 130.030   6
   1  -6 -10 1051.26 192.208  20
  -1  -6  10 1037.54 155.661  19
   1   6  10 1073.71 161.516  13
  -1  -6  10 970.368 214.538   2
   1  -6 -11 1031.58 187.963  20
   1   6  11 1139.91 148.280  15
  -1  -6  11 902.435 131.107  18
   1   6  11 1210.19 240.696   4
  -1  -6  11 821.197 150.997  19
   1   6  11 914.185 155.732  13
   1   6  11 877.147 131.731   6
  -1  -6  11 911.739 214.804   2
   1   6  11 1061.61 168.888  12
   1   6  11 732.146 145.736   8
   1   6  12 824.471 211.832   4
   1   6  12 874.859 159.154   8
  -1  -6  12 1223.79 244.007   2
   1   6  12 851.807 131.704   6
  -1  -6  12 1129.12 139.181  18
  -1  -6  12 849.886 162.780  19
   1   6  12 1039.05 146.801  15
   1   6  12 872.575 164.165  12
   1   6  13 455.027 117.105   6
  -1  -6  13 551.383 184.510   2
  -1   6 -13 492.991 222.630  23
  -1  -6  13 604.446 139.469  19
   1   6  13 639.659 131.772  15
   1   6  13 786.188 222.520   4
   1   6  13 640.845 142.948   8
   1   6  13 330.540 121.637  12
   1   6  14 1674.36 174.352   6
   1   6  14 1803.49 309.996   4
  -1  -6  14 1733.59 188.642   8
   1   6  14 1495.00 191.994   8
   1   6  14 1591.69 188.513  15
  -1  -6  14 1657.50 279.146   2
   1   6  14 1589.02 198.818  12
  -1   6 -14 1298.74 302.256  23
  -1  -6  14 1766.72 213.944  19
   1   6  15 2318.55 232.629   8
   1   6  15 2418.08 228.678  10
  -1  -6  15 2018.75 202.611   8
   1   6  15 2439.33 356.503   4
   1   6  15 2374.87 237.710  12
  -1  -6  15 2135.41 231.986  19
  -1  -6  15 1830.99 277.682   2
   1   6  15 2686.15 233.268  15
  -1   6 -15 2098.97 354.340  23
   1   6  15 2497.36 203.455   6
   1   6  16 8387.10 661.251   4
  -1  -6  16 7954.95 407.658   8
  -1  -6  16 9047.92 477.733  19
   1   6  16 9126.14 445.031  15
   1   6  16 9498.43 453.298  10
  -1   6 -16 7991.80 677.224  23
   1   6  16 8986.97 406.033   6
   1   6  16 9427.32 458.500   8
   1   6  16 9002.81 452.841  12
  -1  -6  17 4539.69 275.198   8
   1   6  17 3386.61 409.071   4
   1   6  17 4418.75 297.438   8
  -1   6 -17 3780.36 457.294  23
   1   6  17 4355.43 293.580  15
  -1  -6  17 4129.03 311.723  19
   1   6  17 4384.59 293.151  12
   1   6  17 3647.08 266.199  10
   1   6  18 9243.53 432.510   8
   1   6  18 9108.69 422.251  12
   1   6  18 8596.26 422.619  15
   1   6  18 8494.85 400.369  10
  -1  -6  18 9160.91 465.866  19
  -1  -6  19 994.845 159.112  19
   1   6  19 950.055 146.303  15
   1   6  19 576.932 126.341   8
   1   6  20 2695.58 197.576   8
   1   6  20 2605.18 202.787  15
  -1  -6  20 2698.64 222.610  19
   1   6  21 3214.15 209.573  15
  -1  -6  21 3460.12 232.597  19
   1   6  22 3213.49 182.625  15
  -1  -6  22 3065.03 198.364  19
   1   6  23 848.560 80.4785  15
  -1  -6  23 1131.80 101.651  19
   1  -7  22 8370.11 313.782  19
   1  -7  21 1208.75 109.881   8
   1  -7  21 1182.58 128.695  19
   1  -7  20 20.4549 82.1037  19
   1  -7  20 159.165 78.3017   8
   1  -7  19 3043.05 231.811  19
   1  -7  19 2723.15 212.950   8
   1  -7  18 7847.21 400.788  19
   1  -7  18 7124.48 376.087   8
  -1   7  18 7297.35 357.295  15
  -1   7  18 7342.15 358.425  10
   1  -7  17 7999.46 423.771   8
  -1   7  17 7955.07 390.535  15
   1  -7  17 7734.00 419.568  19
  -1   7  17 8651.90 414.659  10
   1  -7  16 6044.06 376.239  19
  -1   7  16 6176.50 341.323  15
   1  -7  16 5713.75 366.322   8
  -1   7  16 6324.05 365.951  10
   1  -7  15 6407.60 396.177   8
  -1   7  15 7139.16 401.604  10
   1   7 -15 5504.43 542.043  23
  -1   7  15 5903.46 537.513   4
  -1  -7 -15 6695.87 596.325  21
  -1   7  15 6511.35 358.798  15
   1  -7  15 6953.93 402.185  19
  -1  -7 -14 26096.1 1255.24  21
  -1   7  14 25404.9 869.634  15
  -1   7  14 25257.3 1202.27   4
   1  -7  14 23907.7 913.171  19
  -1   7  14 25022.6 920.941  10
   1   7 -14 25042.0 1227.91  23
   1  -7  14 25459.8 931.656   8
  -1  -7 -13 5092.89 516.417  21
   1  -7  13 5971.82 365.390  19
   1  -7  13 5077.53 315.051  14
  -1   7  13 5240.41 505.016   4
  -1   7  13 5136.59 346.801  10
   1   7 -13 4995.80 515.416  23
  -1   7  13 4805.55 306.617  15
  -1   7  12 9733.05 503.813  10
   1  -7  12 9754.77 613.551   2
   1  -7  12 9364.45 462.710  14
   1  -7  12 10168.7 730.946   1
  -1   7  12 9959.32 700.864   4
  -1  -7 -12 9815.45 706.115  21
   1   7 -12 10929.7 749.013  23
  -1   7  12 10247.1 458.933  15
  -1   7  12 10342.4 508.183  12
   1  -7  12 9775.84 498.943  19
  -1  -7 -11 4442.47 454.090  21
  -1   7  11 3664.15 413.686   4
   1   7 -11 4143.47 462.396  23
  -1   7  11 4044.30 303.515  12
   1  -7  11 3975.57 294.662  19
  -1   7  11 3943.88 301.357  10
  -1   7  11 3575.98 256.222  15
   1  -7  11 3792.89 448.683   1
   1  -7  11 3808.85 278.693  14
   1  -7  11 4209.97 388.131   2
  -1   7  10 2096.96 218.678  12
   1  -7  10 1842.66 198.450  14
   1   7 -10 2020.75 321.895  23
  -1   7  10 1701.14 293.738   4
   1  -7  10 2047.67 319.260   1
   1  -7  10 1809.51 202.484  19
   1  -7  10 2012.35 284.003   2
   1  -7   9 5908.78 466.725   2
   1   7  -9 5910.88 514.179  23
   1  -7   9 6063.04 513.552   1
  -1   7   9 5850.39 499.737   4
   1  -7   9 5411.86 345.421  14
   1   7  -8 1392.73 267.880  23
   1  -7   8 1305.16 178.502  14
  -1   7   8 1504.49 185.118  10
  -1   7   8 1379.35 253.215   4
   1  -7   8 1351.65 260.505   1
  -1  -7  -8 1479.67 204.847   2
   1  -7   8 1366.66 235.449   2
  -1   7   8 1375.44 182.561  12
   1  -7   7 5478.49 465.322   1
   1  -7   7 5132.18 429.759   2
   1   7  -7 6075.37 502.796  23
  -1   7   7 5332.37 377.657  23
   1  -7   7 5799.83 346.301  14
  -1   7   7 5148.08 459.026   4
  -1   7   7 4683.86 315.558  12
  -1   7   7 5434.18 332.866  10
  -1  -7  -6 21753.6 933.772  21
  -1   7   6 21142.2 869.198  23
   1   7  -6 22065.9 1043.20  23
  -1  -7  -6 20492.5 729.451  18
  -1   7   6 22696.2 1024.96   4
   1  -7   6 22817.6 982.237   2
   1  -7   6 22813.2 803.681  14
  -1   7   6 21055.2 782.641  12
   1  -7   6 21792.8 1003.51   1
  -1   7   6 22276.3 792.866  10
   1  -7   5 11883.8 514.406  14
  -1   7   5 11011.1 571.704  23
  -1  -7  -5 11592.4 472.729  18
  -1   7   5 11490.9 497.099  10
   1  -7   5 11465.3 649.607   1
   1   7  -5 11039.3 555.565  22
  -1  -7  -5 9747.38 560.326  21
  -1   7   5 11066.2 493.210  12
   1  -7   4 4049.22 368.341   1
   1  -7   4 3073.91 367.251  20
  -1   7   4 3805.68 254.527  10
  -1   7   4 2926.50 282.046  23
  -1  -7  -4 3507.01 297.285  21
  -1  -7  -4 3267.31 234.023  18
  -1   7   4 3268.20 243.045  12
   1   7  -4 3533.44 297.995  22
  -1   7   3 307.980 98.5577  10
   1  -7   3 220.679 95.4902  18
   1  -7   3 438.887 176.965  20
  -1  -7  -3 388.407 107.707  21
  -1  -7  -3 464.194 144.533   2
  -1  -7  -3 470.727 109.392  18
   1  -7   3 301.438 118.005   1
  -1   7   3 678.036 190.928  22
   1   7  -3 351.124 119.874  22
  -1   7   3 373.357 109.832  12
  -1   7   3 270.606 110.304  23
   1  -7   2 16854.4 635.788  18
  -1   7   2 16409.1 736.989  23
  -1   7   2 17076.3 844.479  22
  -1  -7  -2 15988.2 615.026  18
   1   7  -2 15983.3 726.726  22
  -1  -7  -2 14184.2 664.919   3
   1  -7   2 17139.9 853.967  20
  -1  -7  -2 16296.8 774.033   2
   1  -7   2 17479.8 767.420   1
   1   7  -2 18072.4 864.464  23
  -1   7   2 16261.5 605.606  10
   1   7  -1 29405.0 1123.30  22
   1  -7   1 30011.5 996.821  18
   1   7  -1 33358.5 1269.03  23
  -1   7   1 32211.9 1149.35  23
  -1  -7  -1 30442.0 989.192  18
   1  -7   1 32510.3 1132.12   1
  -1  -7  -1 31019.4 1184.44   2
  -1  -7  -1 29730.8 1056.81   3
  -1   7   1 30432.7 1235.37  22
   1  -7   1 29343.5 1216.54  20
  -1   7   1 30657.5 965.044  10
  -1  -7   0 4140.22 368.268   2
   1  -7   0 4390.77 274.751  18
  -1  -7   0 4029.30 271.187  18
   1   7   0 3622.50 369.548  23
  -1  -7   0 4155.89 300.093   3
   1  -7   0 4753.71 407.264  20
  -1   7   0 4335.13 357.235  23
  -1   7   0 4153.31 390.263  22
  -1  -7   1 31773.6 1041.78  18
  -1  -7   1 31512.4 1238.87   2
  -1   7  -1 32640.2 1275.37  22
  -1   7  -1 33326.2 1217.70  23
   1  -7  -1 31736.9 1028.57  18
   1   7   1 33054.0 1286.24  23
  -1  -7   1 33387.6 1113.46   3
   1  -7  -1 34597.0 1285.42  20
  -1  -7   2 17068.7 642.823  18
   1  -7  -2 16900.1 811.592  20
   1   7   2 15936.1 599.922  12
  -1  -7   2 15637.5 669.209   3
  -1   7  -2 16886.0 788.281  23
   1   7   2 16573.2 829.359  23
  -1  -7   2 18151.5 834.542   2
  -1   7  -2 16742.9 828.630  22
   1   7   3 441.013 97.3352   6
  -1  -7   3 197.314 85.7199   3
   1  -7  -3 361.953 156.479  20
  -1   7  -3 295.694 137.814  23
  -1  -7   3 861.860 189.494   2
   1   7   3 590.989 116.366  12
   1   7   3 397.748 150.393  23
  -1   7  -3 436.385 167.445  22
   1   7   4 3177.88 238.931  12
  -1  -7   4 3744.92 373.951   2
   1   7   4 3388.77 361.153  23
   1  -7  -4 3759.91 350.290  20
   1   7   4 3560.84 224.244   6
  -1  -7   4 3490.43 280.164   3
  -1   7  -4 3468.73 360.153  22
  -1   7  -4 4041.47 366.296  23
   1   7   5 11459.9 497.879  12
   1   7   5 10937.9 452.464   6
  -1  -7   5 10955.3 549.505   3
   1  -7  -5 11125.8 640.487  20
  -1   7  -5 11341.0 670.112  22
   1  -7  -5 11547.1 471.648  14
   1   7   5 11786.5 686.987  23
  -1   7  -5 12279.4 688.201  23
  -1  -7   5 11505.2 507.824  18
   1   7   6 22956.4 800.764  12
   1  -7  -6 20988.7 951.721  20
  -1   7  -6 20668.1 987.380  22
   1   7   6 22472.4 1029.30  23
  -1   7  -6 24110.6 1043.06  23
   1   7   6 22413.2 1021.37   4
   1   7   6 21992.5 742.748   6
  -1  -7   6 21729.5 794.564  18
   1  -7  -7 5625.66 438.263  20
  -1   7  -7 5228.20 464.099  22
   1   7   7 5325.45 465.799  23
  -1  -7   7 5970.52 485.082   2
   1   7   7 6019.11 484.773   4
   1   7   7 5890.30 345.827  12
  -1  -7   7 5295.90 327.761  18
  -1   7  -7 6570.38 507.114  23
   1   7   7 5133.73 290.260   6
   1   7   8 1257.07 175.900  12
   1   7   8 1583.48 266.648  23
   1  -7  -8 1649.97 251.382  20
  -1   7  -8 1235.18 256.452  23
  -1   7  -8 1215.39 244.118  22
   1   7   8 1375.24 248.015   4
   1   7   8 1544.29 157.789   6
  -1  -7   8 1195.80 241.464   2
  -1  -7   8 1304.48 170.459  18
  -1   7  -9 5134.28 488.110  23
  -1  -7   9 5816.30 338.721  18
   1   7   9 5776.30 358.433  12
   1   7   9 5704.20 493.701   4
   1  -7  -9 5688.46 441.499  20
   1   7   9 5661.92 306.688   6
  -1  -7   9 6120.60 515.621   2
   1   7  10 2183.19 314.675   4
  -1  -7  10 1821.92 190.696  18
   1  -7 -10 1616.07 240.382  20
  -1  -7  10 2220.48 221.973  19
  -1  -7  10 2203.48 318.729   2
   1   7  10 2251.51 191.752   6
  -1   7 -10 1476.68 309.247  23
  -1  -7  11 3969.17 272.437  18
   1   7  11 4156.58 293.288   8
  -1  -7  11 3633.97 288.043  19
  -1  -7  11 3781.94 272.146  14
   1   7  11 4340.11 444.064   4
  -1   7 -11 4430.74 475.172  23
  -1  -7  11 3470.56 401.348   2
   1   7  11 4208.53 261.114   6
  -1  -7  12 10224.1 506.287  19
   1   7  12 10240.3 712.844   4
  -1  -7  12 9325.59 445.179  14
   1   7  12 10401.1 491.655   8
  -1  -7  12 10556.0 700.196   2
   1   7  12 10259.6 513.392  12
   1   7  12 10361.8 446.502   6
   1   7  13 5169.59 330.184   8
  -1  -7  13 5284.01 356.212  19
   1   7  13 4672.38 486.447   4
   1   7  13 4862.12 344.198  12
   1   7  13 5370.55 295.765   6
   1   7  14 25400.2 919.040  12
   1   7  14 25017.8 886.583   8
   1   7  14 25322.0 1203.46   4
  -1  -7  14 22760.2 1103.25   2
   1   7  14 25403.6 914.347  10
  -1  -7  14 25320.3 869.286   8
   1   7  14 23856.8 813.399   6
  -1  -7  14 25228.4 917.901  19
   1   7  14 24443.5 831.081  15
  -1   7 -15 5628.86 554.730  23
   1   7  15 6173.91 368.400   8
   1   7  15 6411.31 563.645   4
   1   7  15 6185.69 335.521  15
  -1  -7  15 6197.18 387.425  19
   1   7  15 6287.21 317.698   6
  -1  -7  15 6752.11 359.364   8
   1   7  15 6603.98 389.029  12
   1   7  15 6978.28 391.476  10
  -1  -7  16 6456.98 380.485  19
   1   7  16 5811.38 345.518   8
  -1  -7  16 5579.48 321.870   8
   1   7  16 6026.44 324.744  15
   1   7  16 6146.73 353.398  10
   1   7  16 6110.77 364.748  12
   1   7  17 8431.40 405.328  10
  -1  -7  17 8310.46 434.650  19
   1   7  17 7696.65 368.458  15
   1   7  17 7982.16 404.105  12
   1   7  17 7460.88 389.870   8
   1   7  18 7264.14 345.135  15
   1   7  18 7974.77 377.705  12
  -1  -7  18 7474.67 401.735  19
   1   7  18 7818.42 363.845  10
   1   7  19 2817.63 189.314  15
  -1  -7  19 2673.45 219.557  19
  -1  -7  20 72.3591 78.0128  19
   1   7  20 139.261 65.3810  15
  -1  -7  21 1356.36 134.921  19
  -1  -7  22 9145.51 338.332  19
   1  -8  21 818.129 88.3682  19
   1  -8  20 7570.53 319.687  19
   1  -8  20 7656.61 294.241   8
   1  -8  19 4675.84 260.013  19
   1  -8  19 4415.09 240.208   8
   1  -8  18 2778.86 216.475  19
  -1   8  18 2524.20 191.746  10
   1  -8  18 3051.01 216.660   8
  -1   8  17 12444.2 501.723  10
   1  -8  17 11681.5 506.026  19
   1  -8  17 10971.8 490.632   8
   1  -8  16 975.273 161.640   8
  -1   8  16 1038.27 159.687  10
   1  -8  16 1021.11 166.119  19
   1  -8  15 8824.80 463.850   8
  -1   8  15 9164.58 464.906  10
   1  -8  15 9997.71 478.675  19
   1  -8  14 2468.51 242.829   8
   1  -8  14 2702.74 247.741  19
  -1   8  14 1974.71 227.850  10
   1  -8  13 15015.7 643.959  19
  -1   8  13 13577.5 847.333   4
  -1  -8 -13 15325.9 892.719  21
   1   8 -13 15106.3 918.904  23
  -1   8  13 15523.9 666.568  10
   1  -8  12 2079.52 222.400  19
  -1  -8 -12 2355.83 338.434  21
   1   8 -12 2152.10 360.519  23
  -1   8  12 1927.65 223.192  10
  -1   8  12 2269.11 345.286   4
   1  -8  12 1939.88 275.330   2
   1  -8  12 2051.33 215.794  14
   1  -8  11 3409.18 390.243   2
   1  -8  11 4606.27 325.149  19
  -1   8  11 5028.56 495.272   4
   1  -8  11 4851.26 324.679  14
   1   8 -11 4698.81 501.588  23
  -1  -8 -11 4496.48 461.532  21
   1  -8  10 2379.21 241.190  19
   1   8 -10 3040.77 397.823  23
  -1   8  10 2508.85 370.904   4
  -1  -8 -10 2384.55 329.012  21
   1  -8  10 2439.20 238.688  14
   1  -8  10 2345.47 327.323   2
  -1   8   9 4578.94 325.118  10
  -1  -8  -9 4458.44 428.940  21
   1   8  -9 3813.00 452.404  23
   1  -8   9 3865.50 402.228   2
  -1   8   9 3995.59 440.213   4
   1  -8   9 4114.35 306.835  19
   1  -8   9 4256.43 466.845   1
   1  -8   9 4366.84 318.803  14
   1  -8   8 9566.18 638.040   2
   1  -8   8 8622.87 650.561   1
  -1  -8  -8 8372.27 586.445  21
  -1   8   8 10185.2 691.432   4
  -1   8   8 10038.0 502.163  10
   1   8  -8 10078.2 721.928  23
  -1   8   8 9831.03 495.704  12
   1  -8   8 9501.07 488.644  14
  -1   8   7 18270.2 742.321  10
  -1  -8  -7 19995.5 879.677   2
  -1  -8  -7 17684.0 867.972  21
   1  -8   7 18486.5 967.855   1
   1  -8   7 20245.5 771.165  14
  -1   8   7 19532.0 1001.49   4
  -1   8   7 18492.8 745.559  12
   1  -8   7 19430.5 959.355   2
   1  -8   6 2018.26 307.470   1
  -1   8   6 2328.53 329.891   4
  -1   8   6 2448.46 231.579  10
  -1  -8  -6 2305.96 203.427  18
  -1  -8  -6 2198.08 281.410   2
   1  -8   6 2257.78 232.296  14
   1  -8   6 2348.83 317.823   2
  -1  -8  -6 2250.33 273.920  21
   1  -8   5 53481.6 1831.58   2
  -1  -8  -5 49207.2 1486.45  18
   1  -8   5 50770.7 1799.85   1
  -1  -8  -5 51606.8 1741.93   2
  -1   8   5 49812.6 1526.46  10
  -1   8   5 47924.5 1653.98  23
  -1  -8  -4 3155.03 288.389   3
  -1  -8  -4 3388.36 350.006   2
  -1   8   4 3363.53 330.637  23
   1  -8   4 3938.89 400.715   2
  -1  -8  -4 3567.63 258.872  18
  -1   8   4 3462.03 264.843  10
   1   8  -3 33017.7 1250.97  22
  -1   8   3 34580.7 1117.62  10
   1  -8   3 36996.3 1474.80  20
  -1  -8  -3 34134.1 1115.15  18
   1  -8   3 35110.8 1159.74  14
  -1  -8  -3 34007.6 1194.17   3
  -1   8   3 35917.3 1459.94  22
  -1   8   3 34427.7 1288.23  23
   1   8  -3 35291.3 1443.23  23
  -1  -8  -3 34143.5 1342.23   2
  -1  -8  -2 21203.6 827.105   3
  -1   8   2 20157.4 1019.41  22
   1  -8   2 19950.2 1022.34  20
  -1  -8  -2 20287.3 767.145  18
   1   8  -2 20337.2 1024.36  23
   1  -8   2 22123.1 807.254  14
  -1   8   2 21228.0 755.838  10
  -1  -8  -2 19525.5 946.270   2
  -1   8   2 20807.5 919.321  23
  -1   8   1 10496.8 461.234  10
  -1  -8  -1 10218.5 514.936   3
  -1  -8  -1 11230.5 668.523   2
  -1   8   1 10683.3 616.195  23
  -1  -8  -1 10084.9 484.422  18
  -1   8   1 9704.76 658.087  22
   1  -8   1 10732.6 505.411  14
   1  -8   1 9334.28 651.461  20
   1   8  -1 9691.16 656.400  23
  -1  -8   0 37363.4 1434.36   2
  -1   8   0 37657.0 1377.29  23
  -1   8   0 37951.6 1485.65  22
  -1   8   0 36084.7 1130.31  10
   1  -8   0 35777.5 1463.58  20
   1   8   0 35114.2 1110.67  12
  -1  -8   0 36881.4 1188.18  18
   1   8   0 37852.9 1484.47  23
   1  -8  -1 11203.9 687.501  20
   1   8   1 9125.11 647.029  23
  -1  -8   1 10844.4 502.210  18
  -1   8  -1 10947.2 686.554  22
  -1  -8   1 11021.8 674.256   2
   1   8   1 9873.30 449.300  12
  -1   8  -1 10205.8 620.615  23
  -1   8  -2 19468.9 975.139  22
   1  -8  -2 20174.8 982.976  20
  -1   8  -2 19947.5 935.880  23
   1  -8  -2 19121.9 744.799  14
  -1  -8   2 21298.1 781.182  18
   1   8   2 20925.3 1012.23  23
   1   8   2 20622.5 708.930   6
   1   8   2 19537.5 721.682  12
  -1  -8   2 19649.5 978.625   2
   1   8   3 35392.2 1085.49   6
  -1  -8   3 35229.6 1162.65  18
   1   8   3 34514.9 1427.79  23
   1  -8  -3 37846.2 1433.81  20
  -1   8  -3 34534.3 1372.22  23
  -1  -8   3 34975.8 1420.00   2
   1   8   3 33559.4 1108.64  12
   1  -8  -3 34307.2 1127.21  14
  -1   8  -3 36669.6 1430.01  22
  -1   8  -4 3516.83 392.200  22
  -1  -8   4 3118.39 373.616   2
  -1   8  -4 3739.61 388.782  23
   1  -8  -4 3930.97 395.554  20
   1  -8  -4 3303.33 251.189  14
   1   8   4 3531.14 264.699  12
   1   8   4 4047.96 423.166  23
   1   8   4 3394.03 233.964   6
  -1  -8   5 51752.5 1547.90  18
   1   8   5 49505.7 1509.79  12
   1  -8  -5 47375.8 1469.85  14
  -1   8  -5 50020.7 1813.71  23
  -1   8  -5 50789.1 1811.66  22
   1   8   5 49860.0 1450.34   6
   1  -8  -5 53145.6 1813.68  20
   1   8   5 46604.5 1804.78  23
  -1   8  -6 2442.96 336.746  22
   1   8   6 2142.07 318.798   4
   1  -8  -6 2559.93 320.997  20
  -1   8  -6 1976.52 316.669  23
   1  -8  -6 2329.96 208.888  14
   1   8   6 2558.88 349.714  23
   1   8   6 2774.16 210.507   6
  -1  -8   6 2578.72 243.584  18
   1   8   6 2447.26 236.691  12
  -1   8  -7 18369.2 937.664  22
   1   8   7 18220.4 957.108  23
   1   8   7 18843.2 974.334   4
  -1  -8   7 18620.8 736.268  18
   1  -8  -7 17437.8 884.702  20
  -1   8  -7 20622.6 1006.53  23
   1   8   7 19095.8 675.452   6
   1   8   7 18103.0 731.228  12
  -1  -8   7 17740.5 971.142   2
   1  -8  -8 9937.39 619.686  20
   1   8   8 9663.09 497.180  12
   1   8   8 10336.3 694.731   4
  -1   8  -8 9791.67 660.076  22
  -1   8  -8 10953.6 712.835  23
   1   8   8 9700.90 671.735  23
  -1  -8   8 9545.12 483.130  18
   1   8   8 9380.82 424.018   6
  -1  -8   8 10454.0 705.475   2
  -1  -8   9 3690.86 432.121   2
  -1  -8   9 4619.33 312.379  18
   1   8   9 4027.65 306.648  12
   1   8   9 3608.18 419.618   4
  -1   8  -9 4584.74 483.449  23
  -1  -8   9 4116.27 305.896  19
   1   8   9 4341.00 266.364   6
  -1   8  -9 4793.38 452.445  22
   1   8  10 2368.72 246.872  12
  -1   8 -10 2050.60 318.731  22
   1   8  10 2160.11 329.183   4
  -1  -8  10 2212.11 228.807  19
  -1  -8  10 1750.64 202.313  18
  -1  -8  10 2062.75 326.849   2
   1   8  10 2162.22 185.611   6
  -1   8 -10 2363.61 352.606  23
  -1  -8  11 3760.06 439.262   2
  -1  -8  11 4828.64 334.623  19
   1   8  11 4565.63 269.361   6
  -1  -8  11 5031.16 311.633  14
  -1   8 -11 4876.51 512.724  23
   1   8  11 4588.84 484.414   4
   1   8  12 1936.18 225.416  10
  -1   8 -12 2095.90 338.739  23
  -1  -8  12 2256.57 224.998  19
   1   8  12 2011.72 175.849   6
   1   8  12 1881.37 298.168   4
  -1  -8  12 1889.64 194.668  14
  -1  -8  12 1493.42 283.916   2
  -1  -8  13 14394.9 848.829   2
   1   8  13 14844.8 873.539   4
   1   8  13 14837.3 646.585  12
  -1  -8  13 13497.1 553.778  14
  -1   8 -13 14821.7 903.736  23
  -1  -8  13 15388.6 649.516  19
   1   8  13 14896.3 645.938  10
  -1  -8  14 2224.63 235.675  19
  -1  -8  14 2073.10 202.896   8
   1   8  14 2378.64 234.529  10
   1   8  14 2418.65 239.101  12
  -1  -8  15 9074.75 422.852   8
   1   8  15 10402.5 488.418  10
  -1  -8  15 9318.08 472.897  19
   1   8  15 9608.02 474.863  12
  -1  -8  16 927.399 161.020  19
   1   8  16 1073.98 159.193  10
   1   8  16 960.231 161.965  12
  -1  -8  17 11727.5 513.081  19
   1   8  17 12322.9 498.595  10
   1   8  18 2981.18 201.672  10
  -1  -8  18 3122.39 227.275  19
  -1  -8  19 4609.33 259.819  19
  -1  -8  20 8095.62 335.493  19
  -1  -8  21 892.196 93.0603  19
   1  -9  19 854.263 85.4241   8
   1  -9  19 881.030 98.5785  19
   1  -9  18 315.293 88.3130  19
   1  -9  18 221.331 75.9337   8
  -1   9  17 2536.39 186.377  10
   1  -9  17 2201.39 183.431   8
   1  -9  17 2467.67 192.961  19
   1  -9  16 4868.34 297.690  19
   1  -9  16 5298.00 301.622   8
   1  -9  15 104.405 103.908   8
   1  -9  15 323.742 110.682  19
  -1   9  15 40.1722 94.1512  10
   1  -9  14 13354.5 561.923  19
   1  -9  14 11996.7 546.356   8
  -1   9  14 13211.2 570.500  10
   1  -9  13 9964.87 481.831  19
   1  -9  12 13010.4 576.007  19
   1  -9  12 12551.2 548.378  14
  -1   9  11 6648.11 407.510  10
   1  -9  11 6670.05 392.167  19
   1   9 -11 5988.42 568.796  23
   1  -9  11 6616.19 383.434  14
  -1   9  11 5718.87 529.968   4
   1  -9  10 15623.4 659.002  14
  -1   9  10 15606.4 684.292  10
   1  -9  10 16322.0 668.208  19
   1   9 -10 15036.1 928.029  23
   1  -9  10 14151.4 830.172   2
  -1   9  10 15812.8 913.997   4
   1   9  -9 4849.27 527.168  23
   1  -9   9 5644.95 367.183  14
  -1   9   9 4446.69 482.333   4
  -1   9   9 6099.43 384.530  10
   1  -9   9 6145.09 373.057  19
   1  -9   9 5517.23 498.646   2
   1  -9   8 12058.2 768.151   2
  -1   9   8 13851.4 837.820   4
  -1   9   8 12299.9 591.999  10
   1  -9   8 13284.4 607.586  14
  -1  -9  -7 5118.49 306.562  18
  -1   9   7 5340.15 366.444  10
   1  -9   7 5612.40 509.645   2
   1  -9   7 6258.27 392.251  14
  -1   9   7 5651.42 529.673   4
   1  -9   6 7297.81 593.528   2
   1  -9   6 7319.48 437.537  14
  -1   9   6 8361.24 641.258   4
  -1  -9  -6 7039.17 522.772   2
  -1   9   6 7623.45 428.405  10
  -1  -9  -6 7004.70 373.908  18
   1   9  -5 9974.22 731.229  23
   1  -9   5 10977.9 714.141   2
  -1   9   5 9971.27 702.078   4
  -1  -9  -5 11094.2 493.150  18
  -1   9   5 9982.05 503.188  10
  -1  -9  -5 9500.38 626.527   2
   1   9  -4 39457.8 1660.21  23
  -1  -9  -4 39558.0 1283.60  18
   1  -9   4 42760.0 1368.25  14
  -1  -9  -4 38445.4 1531.38   2
   1  -9   4 43437.1 1648.70   2
  -1   9   4 41155.1 1312.76  10
  -1   9   3 22675.6 1029.39  23
  -1   9   3 23734.9 876.410  10
  -1  -9  -3 24302.4 886.348  18
   1   9  -3 24964.2 1208.90  23
   1  -9   3 25667.1 941.707  14
  -1  -9  -3 26756.8 1151.98   2
   1  -9   2 31423.9 1091.86  14
  -1   9   2 28536.7 1212.12  23
  -1  -9  -2 30500.9 1050.29  18
  -1   9   2 29590.5 1018.65  10
  -1   9   2 29552.5 1356.57  22
  -1  -9  -2 32895.6 1336.70   2
   1   9  -2 31347.4 1384.80  23
  -1  -9  -1 342.468 131.092  18
  -1   9   1 226.155 174.803  22
   1  -9   1 75.8283 166.823  20
   1   9  -1 307.165 164.187  23
  -1   9   1 471.443 170.134  23
   1  -9   1 365.221 152.012  14
  -1  -9  -1 441.852 176.228   2
  -1   9   1 287.419 104.477  10
  -1   9   0 5182.26 500.430  22
   1   9   0 5326.17 312.460  10
   1  -9   0 4846.88 516.942  20
  -1  -9   0 6492.96 536.193   2
   1   9   0 5557.74 314.072  12
  -1  -9   0 5493.41 361.652  18
  -1   9   0 5616.72 473.900  23
   1  -9   0 5770.65 373.017  14
  -1   9   0 5570.93 323.404  10
   1   9   0 5117.05 516.650  23
   1   9   1 303.859 176.206  23
   1  -9  -1 329.233 173.904  20
   1   9   1 417.420 111.968   6
  -1   9  -1 473.991 185.269  22
   1  -9  -1 333.665 122.543  14
  -1  -9   1 321.057 177.468   2
  -1   9  -1 310.912 144.329  23
   1   9   1 438.523 116.832  12
  -1  -9   1 304.602 138.334  18
   1   9   2 30047.8 1357.53  23
   1   9   2 31588.6 1003.68   6
   1  -9  -2 29137.8 1336.27  20
  -1  -9   2 33151.3 1394.40   2
   1  -9  -2 30132.5 1063.26  14
   1   9   2 32213.5 1036.65  12
  -1  -9   2 31613.4 1094.67  18
  -1   9  -2 30345.3 1343.95  22
  -1   9  -2 30207.1 1289.79  23
  -1  -9   3 25866.8 933.519  18
   1  -9  -3 24003.8 1155.20  20
  -1   9  -3 25343.1 1138.26  23
   1  -9  -3 25180.8 898.643  14
   1   9   3 24436.6 869.368  12
   1   9   3 25330.2 1186.97  23
   1   9   3 23318.7 819.838   6
  -1  -9   3 23733.0 1174.12   2
  -1   9  -3 23586.9 1138.91  22
  -1  -9   4 41145.0 1653.02   2
   1  -9  -4 40843.5 1609.13  20
  -1   9  -4 40094.8 1584.45  23
  -1   9  -4 38009.5 1567.47  22
   1  -9  -4 39464.1 1283.17  14
   1   9   4 42324.1 1239.05   6
   1   9   4 40059.3 1287.75  12
   1   9   4 39488.1 1618.85  23
  -1  -9   5 11322.2 752.091   2
  -1   9  -5 9878.79 683.425  22
   1   9   5 11113.3 515.292  12
  -1   9  -5 10220.0 692.202  23
   1  -9  -5 10668.7 700.076  20
   1   9   5 10926.2 734.882  23
   1   9   5 11024.4 732.352   4
   1   9   5 11394.1 470.122   6
   1  -9  -5 9161.81 467.540  14
  -1   9  -6 6444.70 551.192  22
  -1   9  -6 6091.25 556.108  23
   1  -9  -6 7172.58 553.946  20
  -1  -9   6 7362.97 428.593  18
   1   9   6 7018.64 354.550   6
   1   9   6 7698.09 612.895   4
   1  -9  -6 7493.98 383.530  14
   1   9   6 6435.91 570.198  23
   1   9   6 8201.30 434.696  12
  -1  -9   7 5862.82 372.459  18
   1   9   7 4676.51 477.618  23
   1  -9  -7 5020.84 451.789  20
   1   9   7 5230.91 508.611   4
  -1   9  -7 5235.89 505.827  23
   1   9   7 5583.13 359.089  12
   1   9   7 5282.28 293.770   6
  -1  -9   7 5724.88 549.997   2
  -1   9  -7 5099.19 477.512  22
  -1  -9   8 12671.8 829.826   2
   1   9   8 12129.3 798.336   4
  -1   9  -8 12174.3 798.365  23
   1   9   8 13128.2 599.341  12
   1   9   8 13253.8 510.214   6
  -1   9  -8 12114.5 750.292  22
  -1  -9   8 13096.8 592.638  18
  -1  -9   9 5481.63 352.665  18
  -1  -9   9 5495.87 353.035  14
   1   9   9 5657.30 530.307   4
   1   9   9 6725.33 395.613  10
  -1  -9   9 6289.30 378.640  19
   1   9   9 5212.41 358.121  12
  -1  -9   9 5456.80 527.156   2
   1   9   9 5039.37 283.405   6
  -1   9  -9 5839.56 545.859  23
   1   9  10 16359.9 698.395  10
  -1   9 -10 16895.5 949.997  23
   1   9  10 15092.8 903.278   4
  -1  -9  10 17421.4 697.609  19
  -1  -9  10 15206.6 917.880   2
  -1  -9  10 16395.8 664.668  14
   1   9  10 15719.2 686.906  12
   1   9  11 6555.51 396.111  10
  -1  -9  11 6970.59 397.252  19
   1   9  11 6656.43 400.017  12
   1   9  11 5748.44 533.672   4
  -1   9 -11 5859.19 556.604  23
  -1  -9  11 6553.90 365.293  14
  -1  -9  12 12478.7 526.778  14
   1   9  12 12434.1 582.295  12
  -1  -9  12 13539.2 583.268  19
  -1  -9  13 10634.6 494.932  19
   1   9  13 8881.16 472.089  10
  -1  -9  14 12837.2 554.361  19
   1   9  14 13001.3 565.205  10
  -1  -9  14 12627.6 506.509   8
  -1  -9  15 260.397 102.810  19
   1   9  15 117.308 104.680  10
   1   9  15 130.768 99.6407  12
   1   9  16 5719.74 309.875  10
  -1  -9  16 5389.74 307.415  19
   1   9  17 2639.79 187.635  10
  -1  -9  17 2143.85 183.857  19
   1   9  18 235.533 70.6078  10
  -1  -9  18 301.721 87.9253  19
  -1  -9  19 940.832 103.823  19
  -1  -9  20 2134.18 118.901  19
   1 -10  18 657.784 73.2153  19
   1 -10  17 3198.32 170.659   8
   1 -10  17 3169.57 179.176  19
  -1  10  16 265.088 87.1234  10
   1 -10  16 338.491 88.7903  19
   1 -10  16 315.497 83.6679   8
   1 -10  15 1724.10 162.769  19
   1 -10  15 2200.47 178.322   8
  -1  10  15 2148.35 180.952  10
   1 -10  14 4099.23 257.535   8
   1 -10  14 3693.72 250.786  19
   1 -10  13 1148.28 159.129  19
   1 -10  13 1380.56 170.303   8
   1 -10  12 2834.08 231.284  19
  -1  10  12 2633.37 237.433  10
  -1  10  11 306.725 125.704  10
   1 -10  11 492.523 125.778  14
   1 -10  10 2351.77 228.985  14
  -1  10  10 2281.98 234.653  10
   1 -10  10 2527.22 229.423  19
   1 -10   9 382.799 129.229  19
   1 -10   9 436.649 150.162  14
  -1  10   9 360.878 143.515  10
  -1  10   8 3347.28 402.331   4
   1 -10   8 4438.92 308.686  19
   1 -10   8 3986.58 313.823  14
  -1  10   8 3845.57 302.275  10
   1 -10   7 2445.03 351.303   2
  -1  10   7 2613.46 365.349   4
   1 -10   7 3523.09 297.059  14
   1  10  -7 2758.45 389.113  23
  -1  10   7 2706.82 251.245  10
   1  10  -6 2088.02 343.122  23
  -1  10   6 2501.96 240.504  10
  -1  10   6 1825.10 324.044   4
   1 -10   6 1668.80 295.544   2
  -1 -10  -5 4961.96 448.793   2
   1 -10   5 4396.37 461.744   2
   1  10  -5 5219.26 536.701  23
  -1  10   5 4555.55 487.280   4
  -1  10   5 4281.49 314.328  10
  -1 -10  -4 4011.71 287.818  18
  -1 -10  -4 3687.62 404.423   2
   1 -10   4 3967.17 322.786  14
   1  10  -4 3426.34 448.665  23
   1 -10   4 3510.80 425.941   2
  -1  10   4 4482.95 481.067   4
  -1  10   4 4194.48 306.611  10
  -1 -10  -3 19398.3 776.047  18
   1  10  -3 22151.3 1131.29  23
  -1  10   3 21417.8 786.297  10
   1 -10   3 20585.8 836.154  14
  -1 -10  -3 19929.8 1014.36   2
  -1  10   2 6211.99 359.696  10
  -1 -10  -2 6251.50 382.872  18
   1  10  -2 5919.30 564.969  23
   1 -10   2 5689.49 393.492  14
  -1 -10  -2 5962.00 532.516   2
  -1 -10  -1 1913.47 215.682  18
  -1  10   1 1808.27 191.397  10
   1  10  -1 1738.84 181.025   6
   1 -10   1 1408.24 204.435  14
   1 -10   1 1486.17 295.839   2
  -1 -10  -1 1233.25 260.683   2
   1  10  -1 1472.06 308.069  23
   1  10   0 12.3242 82.7875   6
   1  10   0 172.227 93.6928  10
  -1 -10   0 190.854 123.260  18
   1 -10   0 36.9167 137.923   2
   1 -10   0 53.8340 134.087  14
  -1  10   0 178.569 92.5372  10
  -1 -10   0 186.304 154.433   2
  -1  10   0 231.298 174.105  22
  -1  10   0 126.176 113.237  23
   1  10   0 80.6248 156.289  23
  -1  10  -1 1739.26 310.522  22
  -1 -10   1 1358.97 200.179  18
   1  10   1 1308.70 274.888  23
   1  10   1 1523.69 181.507  10
  -1  10  -1 1631.18 276.919  23
   1 -10  -1 1347.29 205.029  14
   1  10   1 1456.47 166.047   6
   1 -10  -1 1467.98 294.246   2
  -1 -10   1 1637.31 302.568   2
   1  10   2 5423.81 529.356  23
  -1  10  -2 5166.06 476.072  23
   1  10   2 5990.31 324.156   6
   1 -10  -2 5717.29 540.903  20
   1  10   2 5998.24 347.279  10
  -1 -10   2 6114.66 396.433  18
  -1  10  -2 5186.90 510.416  22
   1 -10  -2 6184.70 390.082  14
  -1 -10   2 5990.48 554.392   2
  -1 -10   3 21006.3 819.554  18
  -1 -10   3 18331.6 1023.18   2
  -1  10  -3 18433.4 982.821  23
   1  10   3 20828.5 756.281  10
   1 -10  -3 17863.5 996.197  20
   1  10   3 18028.9 678.534   6
   1  10   3 20612.1 1057.77  23
   1  10   3 20096.9 742.833  12
   1 -10  -3 19969.1 771.866  14
  -1  10  -3 19587.4 1019.92  22
  -1  10  -4 4364.59 453.014  23
  -1 -10   4 4692.47 493.066   2
  -1  10  -4 3910.71 432.038  22
   1 -10  -4 3978.41 293.447  14
   1  10   4 3579.89 435.940   4
   1  10   4 4426.38 307.108  10
   1  10   4 3993.51 252.851   6
   1  10   4 3681.76 281.245  12
   1 -10  -4 3355.24 402.844  20
   1  10   4 4135.84 449.622  23
   1  10   5 5010.13 333.509  10
  -1 -10   5 4812.65 503.648   2
   1 -10  -5 5019.74 474.295  20
   1  10   5 4629.24 321.100  12
  -1  10  -5 4201.48 442.538  22
   1  10   5 4639.62 493.953   4
   1 -10  -5 5408.28 325.906  14
   1  10   5 4891.09 490.606  23
   1  10   5 5142.94 280.273   6
  -1  10  -5 4253.62 448.634  23
   1  10   6 2553.39 240.024  10
   1  10   6 2309.59 331.448  23
  -1  10  -6 2388.23 344.562  23
   1  10   6 2073.37 218.683  12
   1  10   6 1623.53 307.586   4
   1 -10  -6 2003.45 197.098  14
  -1 -10   6 2313.28 245.726  18
  -1 -10   7 2742.99 253.827  18
   1  10   7 2742.61 373.419   4
   1  10   7 2955.90 259.525  12
  -1  10  -7 2765.80 369.913  23
  -1 -10   7 3477.06 283.593  14
   1  10   7 3145.22 268.063  10
  -1 -10   7 2753.98 384.905   2
  -1 -10   8 4002.70 303.866  14
  -1 -10   8 3972.95 301.623  19
   1  10   8 3322.13 400.880   4
   1  10   8 3961.17 297.306  12
   1  10   8 3989.85 302.986  10
   1  10   9 288.697 122.523  10
  -1 -10   9 382.761 126.305  14
  -1 -10   9 521.596 143.399  19
   1  10   9 519.545 143.483  12
  -1 -10  10 2565.75 224.690  14
   1  10  10 2221.45 228.010  10
   1  10  10 2089.43 224.734  12
  -1 -10  10 2281.26 223.607  19
   1  10  11 390.386 131.389  10
  -1 -10  11 395.999 121.166  19
  -1 -10  11 415.973 116.428  14
   1  10  11 280.521 124.598  12
  -1 -10  12 2750.62 231.055  19
   1  10  12 2573.56 229.268  10
  -1 -10  12 2220.09 189.355  14
  -1 -10  13 1599.82 173.885  19
  -1 -10  13 1428.87 154.138   8
  -1 -10  14 3883.01 250.322  19
   1  10  15 1754.20 165.172  10
  -1 -10  15 2151.67 180.427  19
   1  10  16 291.597 84.3957  10
  -1 -10  16 258.672 83.1890  19
  -1 -10  17 3289.79 185.206  19
   1  10  17 3358.63 179.810  10
  -1 -10  18 599.868 71.0437  19
   1 -11  15 1485.97 120.040  19
   1 -11  15 1527.62 115.758   8
   1 -11  14 775.189 107.130  19
   1 -11  14 707.276 100.411   8
   1 -11  13 1346.99 141.491   8
  -1  11  13 1163.38 135.791  10
   1 -11  13 1179.66 134.287  19
  -1  11  12 99.3782 87.1327  10
   1 -11  12-29.9963 77.5305  19
  -1  11  12 53.2276 71.2043  17
   1 -11  12 135.917 78.1201   8
  -1  11  11 2074.09 193.550  10
   1 -11  11 2268.07 192.438  19
   1 -11  10 3425.29 244.269  14
  -1  11  10 3117.95 243.716  10
   1 -11  10 3212.10 232.055  19
   1 -11   9 6790.66 361.573  19
  -1  11   9 7252.67 379.866  10
   1 -11   9 6318.61 361.772  14
   1 -11   8 44.0591 104.313  14
   1 -11   8 26.7496 100.879  19
  -1  11   8 13.9642 97.0501  10
   1 -11   7 7221.84 400.011  14
  -1 -11  -7 5952.78 311.876  14
  -1  11   7 6626.78 370.901  10
   1 -11   7 7000.58 375.284  19
  -1  11   6 5995.24 352.581  10
  -1 -11  -6 5961.42 323.399  14
  -1 -11  -5 4932.66 308.349  14
  -1  11   5 5185.52 322.725  10
  -1  11   4 17649.9 670.103  10
   1  11  -4 16240.0 614.971   6
   1 -11   4 17435.2 721.004  14
  -1 -11  -4 17573.3 676.869  14
   1 -11   3 9120.68 481.659  14
   1  11  -3 9008.55 399.611   6
  -1  11   3 8231.34 413.516  10
  -1  11   2 3702.24 262.083  10
   1 -11   2 4237.84 318.421  14
  -1  11   1 675.954 129.032  10
   1 -11   1 859.307 185.048  14
   1 -11   0 8952.33 477.537  14
   1  11   1 766.250 128.824  10
   1 -11  -1 472.464 142.068  14
   1 -11  -2 3787.79 290.971  14
   1  11   2 3770.34 257.807  10
   1  11   3 8920.28 424.161  10
   1 -11  -3 8704.64 442.458  14
  -1 -11   3 9298.60 485.773  14
   1  11   4 17282.7 660.472  10
   1 -11  -4 17124.9 662.006  14
   1  11   5 5358.86 323.514  10
   1 -11  -5 5307.87 309.492  14
   1 -11  -6 5934.78 308.968  14
  -1 -11   6 6618.10 385.338  14
   1  11   6 5773.90 343.104  10
   1  11   7 7077.68 378.766  10
  -1 -11   7 6548.90 373.185  19
  -1 -11   7 6956.89 391.788  14
   1  11   8 67.9406 96.5165  10
  -1 -11   8 40.2792 93.3171  19
  -1 -11   8 27.9937 97.2813  14
  -1 -11   9 6335.50 351.666  19
   1  11   9 6452.65 355.655  10
  -1 -11   9 6899.32 360.656  14
  -1 -11  10 3072.69 232.993  19
   1  11  10 3321.04 243.363  10
  -1 -11  10 3106.65 223.748  14
   1  11  11 2794.98 215.215  10
  -1 -11  11 2636.09 207.103  19
  -1 -11  12 30.2205 80.1676  19
   1  11  12 42.8596 79.2804  10
  -1 -11  13 1386.77 139.895  19
   1  11  13 1094.12 135.282  10
  -1 -11  14 816.021 106.321  19
  -1 -11  15 1366.59 117.502  19
   1  11  15 1797.83 131.139  10
   1  11  16 757.711 72.7079  10
  -1 -11  16 744.150 74.4165  19
   1 -12  13 415.645 61.8496  19
   1 -12  13 429.085 59.7872   8
   1 -12  12 2037.06 138.059   8
   1 -12  12 2081.96 138.082  19
   1 -12  11 126.888 68.2219  19
  -1  12  11 160.627 61.8424  17
   1 -12  11 171.806 72.6927   8
  -1  12  10 3143.27 194.348  17
  -1  12  10 2756.52 189.008  10
  -1  12   9 1664.71 152.630  10
   1 -12   9 1641.89 150.705  19
   1 -12   8 1326.60 144.683  19
  -1  12   8 1163.29 136.229  10
  -1  12   7 3094.20 213.445  10
   1 -12   7 3492.70 229.734  19
   1 -12   7 3288.94 239.152  14
  -1  12   6 2323.24 185.725  10
  -1 -12  -6 1991.05 158.223  14
   1 -12   5 8714.70 427.442  14
   1 -12   5 8875.09 409.178  19
  -1 -12  -5 8605.55 369.661  14
  -1  12   5 8379.52 375.717  10
  -1  12   4 924.930 124.508  10
   1 -12   4 1073.54 169.128  14
  -1 -12  -4 922.848 134.523  14
   1 -12   3 1821.83 199.149  14
  -1 -12  -3 1955.81 187.261  14
   1 -12   2 28853.7 970.895  14
  -1 -12  -2 27935.0 934.701  14
   1 -12   1 7399.04 390.456  14
  -1 -12  -1 6738.71 367.606  14
   1 -12   0 18800.5 706.326  14
  -1 -12   0 18748.5 711.574  14
   1 -12  -1 6777.08 367.212  14
  -1 -12   1 7306.48 388.890  14
  -1 -12   2 27178.2 940.589  14
   1 -12  -2 28001.7 916.786  14
   1 -12  -3 1750.56 175.819  14
   1  12   3 1660.09 153.381  10
   1  12   4 1125.31 134.402  10
  -1 -12   4 891.055 150.992  14
   1 -12  -4 1174.15 136.618  14
  -1 -12   5 9360.21 422.501  19
   1  12   5 8945.93 386.903  10
  -1 -12   6 3179.17 225.058  19
  -1 -12   6 2690.58 219.918  14
   1  12   6 2922.35 207.064  10
   1  12   7 3241.28 219.053  10
  -1 -12   7 3899.66 241.449  19
  -1 -12   7 3398.92 238.582  14
   1  12   8 900.653 125.345  10
  -1 -12   8 974.583 129.583  19
  -1 -12   8 1064.79 140.329  14
   1  12   9 1551.51 146.530  10
  -1 -12   9 1623.93 149.128  14
  -1 -12   9 1786.26 160.058  19
  -1 -12  10 2917.62 180.840  14
  -1 -12  10 2990.63 193.462  19
   1  12  10 3334.52 198.389  10
   1  12  11 164.011 67.4318  10
  -1 -12  11 135.929 68.4317  19
   1  12  12 2234.50 146.838  10
  -1 -12  12 2404.36 149.356  19
   1  12  13 569.547 71.6395  10
  -1 -12  13 426.535 63.1487  19
  -1  13   9 1263.46 92.2827  17
   1 -13   9 977.234 90.5940   8
   1 -13   9 1175.29 90.4553  19
   1 -13   8 26.3894 51.3145  19
  -1  13   8 99.3916 56.1902  17
   1 -13   7 3210.23 174.631  19
   1 -13   6 5627.56 252.187  19
   1 -13   5 3208.78 188.974  19
   1 -13   4 1070.65 118.346  19
  -1 -13  -4 838.792 88.4466  14
   1 -13   3 309.072 83.5159  19
  -1 -13  -3 96.6094 59.0938  14
  -1 -13  -2 1481.14 138.430  14
  -1 -13  -1 7312.43 323.841  14
  -1 -13   0 1721.61 153.697  14
  -1 -13   1 6472.16 313.673  14
  -1  13  -1 7045.83 297.447  17
  -1  13  -2 1624.74 126.019  17
  -1 -13   2 1670.56 158.879  14
  -1 -13   3 92.4912 76.1185  14
  -1 -13   3 156.448 72.9504  19
  -1 -13   4 1077.33 117.627  19
  -1 -13   4 854.897 121.907  14
  -1 -13   5 3272.34 193.217  19
  -1 -13   6 5828.86 257.081  19
  -1 -13   6 5419.21 261.071  14
  -1 -13   7 3025.43 177.093  14
  -1 -13   7 3339.70 178.071  19
  -1 -13   8 48.7888 50.5929  19
  -1 -13   8 133.387 52.7754  14
  -1 -13   9 1155.36 91.5635  19
  -2   0   0 51379.9 1419.59   2
   2   0   0 52534.0 1392.38  23
  -2   0   0 50750.9 1451.76  21
  -2   0   1 21316.0 659.669   3
   2   0  -1 20152.1 609.755  23
   2   0   1 21981.6 632.544  20
  -2   0   1 20560.8 677.834   2
  -2   0  -1 21786.2 704.123  21
  -2   0  -1 21011.8 646.420   2
   2   0   2 238943. 5859.18  20
  -2   0   2 241320. 5964.20   2
  -2   0  -2 236429. 5973.15  21
  -2   0   2 232885. 5844.79  22
  -2   0   2 233444. 5923.15   3
   2   0  -2 233821. 5843.45  23
  -2   0  -3 107313. 2898.22  21
   2   0  -3 109851. 2754.35  23
  -2   0   3 110084. 2895.54   2
  -2   0   3 110618. 2764.77  22
  -2   0   3 108511. 2858.65   3
   2   0   3 108912. 2759.61  20
   2   0   4 2634.43 121.589  20
  -2   0   4 2609.43 203.626   2
  -2   0   4 2535.05 184.354   3
   2   0  -4 2528.27 124.960  23
  -2   0   4 3034.41 207.860  21
   2   0   5 94027.7 2474.49   1
   2   0  -5 89830.1 2311.85  23
  -2   0  -5 96452.8 2499.36  21
   2   0   6 2224.14 192.356   1
  -2   0  -6 2013.12 197.929  21
   2   0  -6 1785.54 119.271  23
  -2   0   6 1568.12 173.061   3
  -2   0  -7 1086.03 173.228  21
   2   0   7 1320.72 166.192   1
  -2   0   7 1133.96 165.570   2
   2   0  -7 1231.95 107.772  23
   2   0   7 1226.21 105.523   6
   2   0  -8 23332.9 722.388  23
   2   0   8 24002.6 843.186   1
  -2   0  -8 22582.8 880.912  21
  -2   0   8 22949.1 863.906   2
   2   0   8 23485.3 709.174   6
   2   0   9 119243. 3265.70   6
  -2   0  -9 130570. 3527.29  21
   2   0  -9 132596. 3310.91  23
  -2   0   9 129358. 3494.86   2
   2   0   9 132062. 3459.27   1
   2   0 -10 63327.2 1763.12  23
   2   0  10 64498.9 1898.57   1
   2   0  10 61958.2 1723.26   6
  -2   0  10 63752.5 1944.29   2
  -2   0 -10 65428.9 1988.35  21
   2   0  11 161231. 4342.54   1
   2   0  11 159021. 4157.11   6
  -2   0  11 166774. 4410.58   2
  -2   0 -11 162678. 4457.20  21
   2   0 -11 162983. 4208.93  23
   2   0  12 99784.0 2633.53   7
  -2   0  12 101168. 2710.73  15
   2   0  12 102244. 2737.92  15
   2   0 -12 99733.1 2741.53  23
   2   0  12 103454. 2880.53   1
  -2   0 -12 105090. 3013.71  21
   2   0  12 100147. 2690.40   6
   2   0  13 29936.6 934.712   6
   2   0  13 29541.4 933.130  19
  -2   0  13 29290.7 947.220  15
  -2   0 -13 28868.3 1179.67  21
   2   0  13 29329.3 968.122  15
   2   0  13 27788.2 858.392   7
   2   0  13 27299.9 1059.54   1
  -2   0  13 27865.9 925.034  19
   2   0  14 1581.12 140.398   7
   2   0  14 1772.24 187.511  19
  -2   0  14 1924.17 191.050  19
  -2   0 -14 1536.23 260.729  21
  -2   0  14 1573.61 182.531  15
   2   0  14 1826.57 234.071   1
   2   0  14 1767.69 194.844  15
   2   0  14 1811.44 171.499  13
   2   0  15 7638.02 372.465  13
   2   0  15 8458.72 505.632   1
   2   0  15 8142.76 435.193  15
  -2   0  15 8524.33 429.200  15
   2   0  15 8174.37 412.071  19
  -2   0  15 7945.09 408.465  19
  -2   0 -15 7825.86 589.238  21
   2   0  16 18369.6 729.516   8
  -2   0  16 16811.0 695.459  19
   2   0  16 17923.5 704.356  19
   2   0  16 16986.2 792.534   1
  -2   0  16 18475.3 719.958  15
  -2   0 -16 19473.0 971.142  21
   2   0  16 18945.4 740.972  15
   2   0  17 9559.85 472.123  19
  -2   0  17 10255.5 489.711  19
  -2   0  17 8948.19 474.046  15
   2   0  17 9027.49 481.615   8
   2   0  17 9571.23 500.159  15
  -2   0 -17 9603.27 666.648  21
   2   0  18 2472.96 253.682  15
   2   0  18 2501.73 247.881   8
  -2   0 -18 2658.23 350.361  21
  -2   0  18 2324.45 241.811  15
   2   0 -18 2560.98 332.634  20
   2   0  18 2566.80 243.207  19
  -2   0  18 2643.76 243.010  19
   2   0  19 2209.96 221.712  19
  -2   0  19 2223.61 225.729  19
   2   0  19 1855.44 228.612  15
   2   0  19 1888.89 217.431   8
  -2   0  19 2030.85 220.243  15
  -2   0  20-61.2930 115.574  19
   2   0  20-15.0923 109.452  19
   2   0  20 31.2334 108.534   8
   2   0  20-48.3396 122.673  15
  -2   0  20-15.0430 102.197  15
  -2   0  21 2219.28 218.097  19
   2   0  21 2288.68 219.971  19
   2   0  21 2286.97 215.288   8
   2   0  21 2129.99 225.220  15
  -2   0  21 1970.27 204.294  15
   2   0  22 4302.75 276.119   8
  -2   0  22 4354.74 273.573  15
   2   0  22 3816.07 270.682  15
   2   0  22 4201.60 272.903  19
  -2   0  22 4083.67 275.844  19
   2   0  23 19.9613 86.5146   8
   2   0  23 43.5539 86.6514  15
   2   0  24 14640.2 505.827  15
   2   0  24 13404.4 479.243   8
   2   0  25 4881.85 209.304   8
   2   0  25 6126.57 240.218  15
   2  -1  25 638.763 71.2276   8
   2  -1  25 706.127 70.1880  15
   2  -1  24 615.674 93.2365   8
   2  -1  24 752.477 100.921  15
   2  -1  23 288.091 98.4040   8
   2  -1  23 182.107 91.0151  19
  -2   1  23 339.888 108.581  15
   2  -1  23 304.477 94.5983  15
   2  -1  22 468.642 124.118  15
   2  -1  22 692.968 124.919  19
   2  -1  22 551.648 122.704   8
  -2   1  22 727.709 139.501  15
   2  -1  21 2590.25 239.898   8
  -2   1  21 3092.95 261.340  15
   2  -1  21 3224.86 254.524  15
   2  -1  21 2911.43 242.273  19
  -2   1  20 213.231 121.446  19
   2  -1  20 362.872 128.931   8
  -2   1  20 347.125 136.981  15
   2  -1  20 274.176 130.356  15
   2  -1  20 389.259 128.134  19
  -2  -1 -19 7379.13 613.301  21
   2  -1  19 8490.58 441.504  19
  -2   1  19 7147.74 426.772  15
   2  -1  19 8004.73 440.609  15
   2  -1  19 8007.48 444.790   8
  -2   1  19 8476.73 446.547  19
  -2   1  18 18253.6 723.944  19
   2  -1  18 17852.2 737.431   8
  -2   1  18 17232.0 722.970  15
   2  -1  18 18290.2 738.038  15
  -2  -1 -18 18113.5 992.945  21
   2  -1  18 18067.6 717.660  19
  -2  -1 -17 1457.89 285.904  21
   2  -1  17 2477.47 245.702   8
   2  -1  17 2411.16 242.823  15
   2  -1  17 2122.18 276.451   1
  -2   1  17 2156.40 220.163  19
   2  -1  17 2315.57 228.286  19
  -2   1  17 1909.94 226.024  15
  -2   1  16 10939.8 502.709  19
   2  -1  16 10345.2 504.730  15
   2  -1  16 9998.31 602.681   1
  -2   1  16 9767.24 495.630  15
   2  -1  16 10369.5 490.571  19
   2  -1  16 10499.9 512.635   8
  -2  -1 -16 10518.2 719.425  21
   2  -1  15 30880.4 1184.70   1
   2  -1  15 28770.6 998.563  19
  -2   1  15 30774.7 1009.00  19
   2  -1  15 29490.0 1017.05  15
  -2   1  15 29917.2 1019.59  15
   2  -1  15 29782.6 910.309   7
  -2  -1 -15 30946.4 1326.82  21
   2  -1  14 4888.37 399.422   1
   2  -1  14 5342.43 325.554  15
   2  -1  14 4546.76 249.202   7
  -2  -1 -14 5340.86 475.900  21
  -2   1  14 5162.90 319.769  15
   2  -1  14 4658.34 295.272  19
  -2   1  14 4802.56 302.480  19
   2  -1  13 27930.9 943.672  15
   2  -1  13 28148.0 867.785   7
  -2   1  13 29148.1 952.153  15
  -2  -1 -13 30637.7 1239.75  21
  -2   1  13 27577.4 920.534  19
   2   1 -13 29060.5 1022.81  23
   2  -1  13 29347.2 1115.96   1
   2  -1  13 28199.6 923.600  19
  -2   1  12 10465.3 445.329  15
   2  -1  12 9996.91 442.065  15
   2  -1  12 9413.80 382.112   7
  -2  -1 -12 10082.0 621.174  21
   2  -1  12 9506.48 536.165   1
   2   1 -12 9783.71 483.290  23
  -2  -1 -11 41479.8 1491.88  21
   2   1 -11 41767.5 1300.83  23
   2  -1  11 41585.8 1170.53   7
   2  -1  11 40943.4 1393.62   1
   2  -1  11 40267.1 1201.22   6
   2  -1  10 13147.9 611.718   1
   2  -1  10 12832.7 465.686   6
  -2  -1 -10 13495.3 672.919  21
   2  -1  10 11804.5 443.254   7
   2   1 -10 13675.3 546.521  23
   2   1  -9 8512.54 397.345  23
  -2   1   9 8236.33 441.273   4
   2  -1   9 8334.08 336.744   6
   2  -1   9 8649.74 464.097   1
  -2  -1  -9 9268.16 515.786  21
   2  -1   8 5363.53 346.491   1
   2  -1   8 5560.62 250.592   6
  -2   1   8 5743.55 331.579   4
  -2  -1  -8 5577.63 378.407  21
   2   1  -8 5804.35 298.907  23
   2   1  -7 280044. 6905.02  23
  -2  -1  -7 281469. 7071.95  21
   2  -1   7 288193. 7028.51   1
  -2   1   7 283273. 6964.68   4
   2  -1   7 259315. 6812.80   6
   2  -1   6 82105.9 2181.62  20
  -2  -1  -6 78817.0 2328.85  21
   2   1  -6 80042.2 2197.44  23
  -2   1   5 88225.5 2255.46   4
   2   1  -5 85550.9 2236.56  23
   2  -1   5 82149.1 2212.82  20
  -2  -1  -5 82877.6 2360.66  21
  -2   1   4 1402.63 132.415   3
   2  -1   4 1455.35 117.359  20
  -2   1   4 1880.97 140.257  22
   2  -1   4 1476.20 163.377   1
   2   1  -4 1481.59 121.930  23
  -2  -1  -4 1536.96 82.5687   2
  -2   1   4 1479.23 117.266   4
  -2  -1  -4 1335.70 163.800  21
  -2   1   3 153000. 3786.96  21
   2   1  -3 148234. 3685.65  23
   2  -1   3 151387. 3686.85  20
   2  -1   3 145202. 3770.57   1
  -2   1   3 150292. 3701.54  22
  -2  -1  -3 148350. 3636.76   2
  -2   1   3 130763. 3680.39   3
  -2   1   3 136604. 3642.21   4
  -2   1   2 141051. 3723.32  21
   2  -1   2 140239. 3652.90  20
  -2   1   2 141503. 3589.51   4
  -2  -1  -2 144760. 3630.91   2
  -2   1   2 142233. 3663.60  22
  -2   1   2 149369. 3648.61   3
   2   1  -2 145843. 3658.15  23
  -2   1   1 49850.7 1326.14   3
  -2   1   1 50466.4 1415.84  21
   2  -1   1 51047.0 1366.83  20
  -2  -1  -1 52723.8 1359.21   2
  -2   1   1 46681.0 1265.72   4
   2   1  -1 51389.2 1371.08  23
  -2  -1   0 238509. 6223.06  21
  -2   1   0 253370. 6237.72  21
   2  -1   0 248177. 6200.89  20
  -2   1   0 241763. 6135.39   3
  -2  -1   0 246767. 6197.97   2
   2   1   0 254465. 6207.00  23
  -2  -1   1 49669.0 1399.33   2
  -2  -1   1 50224.4 1401.13  21
   2   1   1 47707.3 1272.97   4
  -2  -1   1 48853.4 1394.15   3
   2   1   1 52103.4 1405.26  23
  -2   1  -1 51630.4 1416.45  21
   2  -1  -1 51618.1 1404.53  20
   2   1   2 142422. 3645.12  23
   2   1   2 138816. 3508.74   4
   2   1   2 134102. 3493.15  20
  -2  -1   2 143584. 3636.53   2
  -2  -1   2 145297. 3630.01   3
  -2   1  -2 145535. 3641.99  21
  -2  -1   2 144735. 3621.10  21
  -2  -1   3 139326. 3699.65   3
   2   1   3 146912. 3610.97   4
  -2  -1   3 145636. 3727.28   2
   2   1   3 148954. 3753.55  23
  -2   1  -3 144771. 3712.73  21
  -2  -1   3 149469. 3703.51  21
   2   1   3 139982. 3521.53  20
   2   1   4 1413.89 117.796   4
  -2   1  -4 1342.98 147.187  21
  -2  -1   4 1268.48 150.293   2
  -2  -1   4 1580.93 154.972   3
  -2  -1   4 1427.89 141.932  21
  -2   1  -5 85828.7 2242.34  21
   2   1   5 81095.7 2159.35   4
   2   1   6 81444.4 2193.50   4
  -2  -1   6 84102.8 2272.06   3
  -2   1  -6 80855.2 2251.55  21
   2   1   6 79479.4 2102.04   6
  -2  -1   7 249256. 6866.00   3
   2  -1  -7 252459. 6626.61  23
   2   1   7 286343. 6864.77   1
  -2   1  -7 278132. 6885.47  21
   2   1   7 292758. 6849.47   4
  -2  -1   7 293267. 6929.46   2
   2   1   7 279319. 6705.81   6
   2   1   8 5301.26 318.167   4
   2   1   8 6068.08 337.978   1
  -2  -1   8 5187.48 346.504   2
  -2   1  -8 5584.27 347.869  21
   2   1   8 4986.11 245.512   6
   2  -1  -8 5205.15 211.159  23
  -2   1  -9 9366.68 475.069  21
   2   1   9 8206.65 444.364   4
   2   1   9 8347.55 425.904   1
   2   1   9 8199.87 340.967   6
  -2  -1   9 8452.06 467.698   2
   2   1  10 13225.7 575.046   1
  -2   1 -10 12808.4 618.373  21
  -2  -1  10 12969.6 624.620   2
   2   1  10 12745.3 476.813   6
  -2  -1  11 41759.8 1417.02   2
  -2   1 -11 40865.2 1409.68  21
   2   1  11 42381.8 1332.98   1
   2   1  11 39975.8 1195.28   6
  -2  -1  12 10542.1 580.485   2
   2   1  12 10156.5 426.981   6
   2   1  12 9511.57 445.376  15
   2   1  12 10880.8 523.176   1
  -2   1 -12 9963.95 568.544  21
  -2   1 -13 29150.7 1139.73  21
   2   1  13 28009.6 914.329  19
  -2  -1  13 28732.1 1122.64   2
  -2  -1  13 28234.3 915.568  15
  -2  -1  13 27760.7 916.947  19
   2   1  13 29226.0 1026.10   1
   2   1  13 27324.7 903.970  13
   2   1  13 26904.3 830.056   7
   2   1  13 29462.9 958.621  15
   2   1  14 4814.01 348.027   1
   2   1  14 4878.77 318.397  15
   2   1  14 4844.79 300.736  19
  -2   1 -14 5144.93 421.315  21
  -2  -1  14 4920.12 298.829  15
   2   1  14 4717.45 285.714  13
  -2  -1  14 4774.32 398.477   2
  -2  -1  14 4757.67 299.564  19
  -2  -1  15 28907.6 997.609  19
  -2  -1  15 29391.3 987.287  15
   2  -1 -15 31963.1 1273.17  20
   2   1  15 29291.2 960.482  13
  -2   1 -15 31013.5 1232.18  21
   2   1  15 30210.3 999.849  19
   2  -1 -16 9444.23 634.072  20
   2   1  16 10303.1 482.929  19
  -2  -1  16 10686.6 497.497  19
  -2  -1  16 9711.70 472.817  15
   2   1  16 10089.8 495.922   8
   2   1  16 9696.77 439.500  13
  -2   1 -16 9409.44 620.001  21
  -2  -1  17 1641.33 202.250  15
  -2  -1  17 2033.02 217.481  19
   2   1  17 2356.53 227.611  19
   2  -1 -17 2226.00 324.317  20
   2   1  17 2008.83 230.946   8
   2   1  18 17056.1 706.874  19
   2   1  18 18659.2 739.561   8
  -2  -1  18 17895.6 702.603  15
  -2  -1  18 18306.5 725.688  19
   2  -1 -18 17719.7 914.110  20
  -2  -1  19 8107.99 419.769  15
   2   1  19 7862.85 437.120   8
   2   1  19 7697.41 421.049  19
  -2  -1  19 8035.39 435.490  19
   2   1  20 375.905 129.624  19
  -2  -1  20 427.655 127.802  19
  -2  -1  20 151.152 96.8560  15
   2   1  20 445.764 139.040   8
  -2  -1  21 3018.16 251.002  19
   2   1  21 2521.95 237.167   8
  -2  -1  21 3088.85 232.212  15
  -2  -1  22 748.814 136.333  19
  -2  -1  22 429.106 104.946  15
   2   1  22 722.607 148.687  15
   2   1  22 538.986 123.018   8
   2   1  23 291.664 102.349   8
  -2  -1  23 187.721 89.2409  19
   2   1  23 157.608 96.3105  15
   2   1  24 646.886 111.384  15
   2   1  24 689.415 92.5887   8
   2   1  25 641.160 73.5731   8
   2   1  25 675.345 90.2541  15
   2  -2  24 1670.40 134.025   8
   2  -2  23 2601.17 189.802  19
   2  -2  23 2283.53 168.608  15
   2  -2  23 2417.44 182.857   8
   2  -2  22 2638.02 215.581   8
  -2   2  22 2408.36 217.654  15
   2  -2  22 2615.69 201.618  15
   2  -2  22 2835.81 215.307  19
   2  -2  21 2018.72 212.821   8
   2  -2  21 1929.33 192.751  19
  -2   2  21 2200.74 220.111  15
   2  -2  21 2032.06 195.392  15
   2  -2  20 5963.86 360.882   8
   2  -2  20 5726.14 335.033  15
  -2   2  20 5069.59 347.413  15
   2  -2  20 4983.47 324.995  19
   2  -2  19 1611.73 201.497  19
   2  -2  19 1863.33 221.071   8
  -2  -2 -19 2235.23 346.302  21
   2  -2  19 1790.40 202.924  15
  -2  -2 -18 17477.5 1016.62  21
  -2   2  18 19746.2 758.202  19
   2  -2  18 18828.2 759.931   8
   2  -2  18 16672.5 861.305   1
   2  -2  18 18906.2 731.036  15
   2  -2  18 18136.2 729.065  19
  -2  -2 -17 15695.8 962.998  21
  -2   2  17 17001.0 701.238  19
   2  -2  17 17794.4 703.793  19
   2  -2  17 16573.2 709.992   8
   2  -2  17 17990.4 705.587  15
   2  -2  17 17489.0 864.053   1
   2  -2  16 2298.00 183.714   7
   2  -2  16 2728.62 240.439  19
   2  -2  16 2014.47 230.797   8
  -2  -2 -16 2720.92 379.740  21
   2  -2  16 2690.78 242.267  15
  -2   2  16 2556.47 232.416  19
   2  -2  15 42223.3 1325.72  15
  -2  -2 -15 45023.5 1741.16  21
   2  -2  15 41844.0 1548.61   1
  -2   2  15 42753.8 1327.30  19
   2  -2  15 43217.3 1327.90  19
   2  -2  15 42231.7 1237.75   7
   2   2 -15 40047.4 1454.67  23
   2  -2  14 17618.8 842.957   1
  -2  -2 -14 18702.5 967.013  21
   2   2 -14 17238.0 780.206  23
   2  -2  14 15910.0 588.225   7
  -2   2  14 17566.3 662.536  19
   2  -2  14 17322.0 662.765  15
   2  -2  14 16598.3 651.636  19
  -2  -2 -13 34325.8 1411.76  21
   2  -2  13 35419.0 1316.53   1
  -2   2  13 34363.0 1075.37  19
   2   2 -13 34204.3 1224.13  23
   2  -2  13 33357.8 1018.51   7
   2  -2  13 33623.8 1070.29  19
   2  -2  13 33648.0 1086.06  15
  -2  -2 -12 11581.5 690.219  21
  -2   2  12 10388.0 446.987  19
   2   2 -12 11753.9 569.041  23
   2  -2  12 9946.71 437.532  19
  -2   2  12 11615.2 623.402   4
   2  -2  12 10438.4 594.417   1
   2  -2  12 10973.2 425.122   7
   2  -2  12 9625.77 443.500  15
   2  -2  11 9601.23 434.371   8
  -2   2  11 11304.4 580.130   4
   2  -2  11 9720.24 392.394   7
  -2   2  11 9718.41 431.959  15
  -2  -2 -11 10674.9 634.739  21
   2  -2  11 10079.5 565.067   1
   2   2 -11 10099.7 514.334  23
  -2   2  10 24288.2 923.292   4
  -2  -2 -10 24462.1 1010.92  21
   2  -2  10 23461.1 732.528   7
   2  -2  10 23125.8 937.200   1
   2   2 -10 21435.7 846.438  23
  -2  -2  -9 14591.7 711.990  21
   2  -2   9 13589.7 445.694   2
  -2   2   9 15607.2 651.133   4
   2   2  -9 15118.1 616.253  23
   2  -2   9 15272.3 506.202   7
   2  -2   9 14923.4 673.376   1
   2  -2   8 4536.17 205.591   2
  -2   2   8 5199.40 321.246   4
   2   2  -8 4519.68 296.723  23
   2  -2   8 4310.66 323.455   1
   2  -2   8 4619.78 229.296   7
  -2  -2  -8 4061.72 345.916  21
  -2   2   8 4586.18 206.632   5
  -2   2   7 31353.9 877.446   5
   2  -2   7 31435.4 901.456   7
  -2   2   7 32662.6 1026.21   4
   2  -2   7 29347.2 882.398   2
  -2  -2  -7 32189.6 1118.01  21
   2   2  -7 31492.9 1013.76  23
   2  -2   6 14981.0 554.562  20
   2  -2   6 13079.3 456.974   7
  -2   2   6 14463.8 550.693   4
   2   2  -6 15179.7 568.184  23
  -2   2   5 68666.8 1842.35  22
   2  -2   5 66431.3 1797.87  20
   2  -2   5 66234.9 1865.33   1
   2   2  -5 63877.5 1805.44  23
  -2   2   5 66096.1 1791.10   4
  -2  -2  -5 62014.6 1658.38   2
  -2   2   4 76511.3 2056.25  22
   2  -2   4 75144.0 2080.13   1
   2   2  -4 72380.2 2023.56  23
  -2  -2  -4 73100.9 1923.47   2
  -2   2   4 74272.4 1995.50   4
   2  -2   4 75027.4 2021.04  20
  -2  -2  -3 25690.8 868.199  21
  -2   2   3 25729.3 837.877  22
   2  -2   3 25661.6 820.975  20
   2  -2   3 25046.5 850.154   1
  -2   2   3 26453.3 785.903   4
   2   2  -3 25513.8 826.985  23
  -2  -2  -3 26690.4 766.136   2
   2  -2   2 232604. 5884.82  20
   2  -2   2 224308. 5901.24   1
  -2  -2  -2 233657. 5831.93   2
  -2   2   2 225900. 5918.97  21
  -2   2   2 229403. 5898.63  22
   2   2  -2 232120. 5890.38  23
  -2  -2  -2 248426. 5933.26  21
  -2   2   1 45021.3 1302.87  21
  -2   2   1 43660.2 1160.31   3
  -2  -2  -1 44228.1 1291.11  21
   2  -2   1 44664.8 1284.87  20
   2   2  -1 43781.1 1283.93  23
  -2  -2  -1 44249.0 1249.49   2
   2  -2   1 45027.4 1287.43   1
  -2   2   0 74215.4 1940.72  21
  -2  -2   0 70049.1 1906.65   2
   2  -2   0 70968.1 1933.90  20
   2   2   0 69830.6 1938.42  23
   2  -2   0 67779.2 1898.26   1
  -2   2   0 69419.2 1777.55   3
  -2  -2   0 72247.9 1922.86  21
   2  -2  -1 40813.8 1214.81   1
  -2  -2   1 43145.1 1239.49  21
  -2  -2   1 43358.8 1260.08   2
   2   2   1 44089.4 1289.96  23
  -2   2  -1 44044.6 1117.76   3
  -2   2  -1 42873.2 1258.77  21
  -2  -2   2 230154. 5837.07   2
  -2   2  -2 232023. 5815.27  21
  -2  -2   2 235612. 5845.36   3
   2  -2  -2 234548. 5756.72   1
  -2  -2   2 217372. 5774.43  21
   2   2   2 225555. 5856.16  23
  -2   2  -3 26037.1 824.047  21
   2   2   3 24469.9 771.128   4
   2  -2  -3 26471.1 869.328  20
  -2  -2   3 26291.5 799.682  21
  -2  -2   3 26390.1 864.168   2
  -2  -2   3 27112.1 863.407   3
   2   2   3 25684.2 878.376  23
   2  -2  -3 24326.0 749.543   1
  -2   2  -4 75342.8 2056.96  21
  -2  -2   4 76472.1 2026.47  21
  -2  -2   4 74193.3 2105.28   2
  -2  -2   4 73373.9 2089.60   3
   2  -2  -4 73373.6 2106.80  20
   2   2   4 74470.5 2137.06  23
   2   2   4 76476.9 2028.17   4
   2   2   5 67056.8 1828.23   4
  -2   2  -5 65200.9 1840.02  21
   2   2   5 67957.1 1945.54  23
   2  -2  -5 66917.8 1913.97  20
   2   2   5 65038.0 1735.13   6
  -2  -2   5 64470.0 1886.47   3
   2  -2  -6 13630.0 586.744  20
   2   2   6 14688.6 540.944   4
  -2   2  -6 13992.4 538.678  21
   2   2   6 14010.9 452.591   6
   2  -2  -7 30330.1 1085.95  20
   2   2   7 33560.6 1042.99   4
  -2  -2   7 33674.3 1112.77   2
   2   2   7 29810.0 914.974   6
  -2   2  -7 33348.9 1041.88  21
   2   2   8 4891.23 316.378   4
  -2   2  -8 4738.53 302.556  21
   2  -2  -8 4262.09 327.957  20
   2   2   8 4642.26 293.198   1
   2   2   8 4320.51 229.567   6
  -2  -2   8 5038.02 351.691   2
  -2   2  -9 16390.1 655.722  21
  -2  -2   9 14970.7 695.858   2
   2   2   9 16214.9 675.239   4
   2  -2  -9 16934.3 734.554  20
   2   2   9 14663.3 614.033   1
   2  -2 -10 23984.4 955.699  20
  -2  -2  10 22552.7 931.408   2
   2   2  10 23723.2 843.359   1
   2   2  10 24459.7 928.323   4
  -2   2 -10 22656.0 874.674  21
  -2   2 -11 8697.04 489.533  21
   2   2  11 9367.72 418.449   8
   2   2  11 9814.39 466.313   1
   2   2  11 10542.0 559.267   4
  -2  -2  11 9118.29 541.837   2
   2   2  11 9303.85 422.997  15
   2  -2 -11 9929.89 570.264  20
  -2   2 -12 10719.1 563.215  21
  -2  -2  12 10743.8 608.741   2
   2   2  12 10525.4 449.044  19
  -2  -2  12 10797.4 457.425  19
   2   2  12 10360.6 465.396   8
   2  -2 -12 10348.5 612.255  20
   2   2  12 11250.2 515.110   1
   2   2  12 11460.6 622.826   4
   2   2  12 11075.8 463.200  13
   2   2  12 10901.3 479.825  15
  -2   2 -13 33704.7 1223.57  21
   2   2  13 34044.7 1069.70  19
  -2  -2  13 34702.2 1300.40   2
  -2  -2  13 34704.6 1050.44  15
   2   2  13 33588.8 1098.69  15
   2  -2 -13 34475.5 1318.86  20
   2   2  13 33119.3 1121.85   1
   2   2  13 33210.3 1065.98  13
  -2  -2  13 33106.5 1069.34  19
   2   2  14 17301.7 661.716  19
  -2  -2  14 17628.9 671.429  19
   2   2  14 17860.7 660.480  13
  -2   2 -14 16950.1 787.983  21
   2  -2 -14 17103.7 858.777  20
  -2  -2  14 16809.6 634.866  15
   2   2  14 17430.0 689.358  15
  -2  -2  14 17572.8 850.467   2
   2   2  15 43529.0 1323.60   6
   2   2  15 40778.0 1322.64  19
   2  -2 -15 44753.0 1612.23  20
   2   2  15 42414.9 1301.87  13
  -2  -2  15 43857.9 1303.81  15
   2   2  15 42515.8 1362.17  15
  -2  -2  15 45058.5 1576.68   2
  -2  -2  15 42875.0 1341.01  19
   2   2  15 41738.9 1275.57  12
  -2  -2  16 2456.06 216.701  15
   2   2  16 2318.16 246.485  15
   2   2  16 2905.83 237.220   6
   2   2  16 2427.94 237.005   8
   2   2  16 2725.82 240.638  19
  -2  -2  16 2423.10 237.870  19
   2   2  16 2489.55 214.841  13
  -2  -2  16 2357.77 297.988   2
   2   2  16 2306.33 197.785  12
   2  -2 -16 2893.29 351.002  20
  -2  -2  17 17131.0 703.315  19
   2  -2 -17 17262.6 892.323  20
   2   2  17 17123.8 723.823  15
   2   2  17 18027.8 718.693   8
   2   2  17 17397.0 701.062  19
   2   2  17 17293.8 647.070  13
  -2  -2  17 17826.1 670.705  15
  -2  -2  18 18306.4 688.642  15
  -2  -2  18 17883.9 728.367  19
   2   2  18 17881.1 724.904  19
   2   2  18 19480.3 753.971   8
   2   2  18 18446.9 761.661  15
   2   2  18 17827.2 648.289  13
  -2  -2  19 2152.68 224.782  19
  -2  -2  19 2153.25 200.304  15
   2   2  19 2008.62 232.860  15
   2   2  19 2112.41 226.709   8
   2   2  20 5513.13 345.651   8
  -2  -2  20 5661.37 349.529  19
  -2  -2  20 5149.36 303.353  15
   2   2  20 6062.38 374.529  15
  -2  -2  21 1856.91 195.412  19
   2   2  21 1913.97 199.940   8
   2   2  21 2074.50 219.418  15
  -2  -2  22 2821.99 219.163  19
   2   2  22 2809.39 221.094   8
   2   2  22 3094.31 240.750  15
  -2  -2  23 2461.77 192.608  19
   2   2  23 2713.48 192.382   8
   2   2  24 1708.20 134.814   8
   2  -3  24 1026.33 107.071  19
   2  -3  24 1144.45 106.859   8
   2  -3  23 323.094 88.1556   8
   2  -3  23 409.666 97.6589  19
   2  -3  22 760.495 128.470  19
   2  -3  22 921.521 138.771   8
   2  -3  21 5573.71 324.643  19
   2  -3  21 5626.30 290.577  15
   2  -3  21 6046.10 345.620   8
   2  -3  20 2398.13 220.525  19
   2  -3  20 2270.01 196.991  15
  -2   3  20 2132.56 224.527  15
   2  -3  19 5332.32 337.132  19
  -2  -3 -19 4214.10 481.143  21
  -2   3  19 5280.69 354.707  15
   2  -3  19 4453.57 332.256   8
   2  -3  19 5563.91 317.733  15
  -2  -3 -18 1462.94 304.568  21
   2  -3  18 1523.11 201.297  19
   2  -3  18 1049.34 226.827   1
   2  -3  18 1525.00 204.954   8
  -2   3  18 1624.86 220.833  15
   2  -3  18 1736.36 189.905  15
   2  -3  17 15324.4 641.659  19
  -2   3  17 14829.6 657.960  15
   2  -3  17 14434.0 550.152   7
  -2  -3 -17 15316.2 947.643  21
   2  -3  17 15563.3 619.801  15
   2  -3  17 15888.6 847.948   1
   2  -3  17 15520.5 672.659   8
   2  -3  16 39041.5 1268.30  19
   2  -3  16 41639.1 1318.17   8
  -2  -3 -16 39846.6 1684.00  21
   2  -3  16 38239.8 1518.56   1
  -2   3  16 39970.1 1299.74  15
   2  -3  16 39541.4 1245.70  15
   2  -3  16 38913.3 1183.88   7
   2  -3  15 5021.01 314.042  15
  -2   3  15 4993.00 299.965  10
   2  -3  15 5339.61 465.012   1
  -2   3  15 5181.07 348.029  15
   2  -3  15 5449.08 296.925   7
  -2  -3 -15 5386.10 533.067  21
   2   3 -15 5148.98 434.051  23
   2  -3  15 5238.38 328.593  19
   2  -3  14 1809.35 170.601   7
   2   3 -14 1581.37 255.716  23
  -2   3  14 1821.62 180.812  10
   2  -3  14 1984.71 197.527  19
  -2   3  14 2045.96 217.808  15
  -2  -3 -14 2083.13 346.717  21
   2  -3  14 1714.56 189.492  15
   2  -3  14 1755.36 277.008   1
   2  -3  13 2357.40 210.035  19
  -2   3  13 2846.02 335.942   4
   2  -3  13 2616.02 322.494   1
  -2   3  13 2245.56 197.309  10
  -2   3  13 3225.58 250.334  15
  -2  -3 -13 2882.26 374.572  21
   2  -3  13 2469.66 191.124   7
   2  -3  13 2256.84 203.028  15
  -2   3  13 2412.36 212.219  19
   2   3 -13 2865.47 307.243  23
  -2  -3 -12 16670.9 886.857  21
   2  -3  12 17130.7 828.592   1
  -2   3  12 15357.5 596.246  10
  -2   3  12 16525.8 616.127  19
   2  -3  12 16332.3 609.269  19
   2  -3  12 15828.7 599.134  15
  -2   3  12 16414.4 793.809   4
  -2   3  12 15510.2 622.077  15
   2  -3  12 16463.8 586.792   7
   2   3 -12 15549.6 752.101  23
   2   3 -11 8406.12 493.527  23
  -2   3  11 7391.90 361.718  19
  -2   3  11 7993.46 498.784   4
   2  -3  11 7219.05 374.445   8
  -2   3  11 7117.94 370.036  15
   2  -3  11 7161.54 352.379  19
  -2  -3 -11 7811.37 560.505  21
   2  -3  11 8424.36 539.536   1
   2  -3  11 8078.70 352.305   7
  -2  -3 -10 23289.2 1027.66  21
   2  -3  10 24105.1 981.802   1
  -2   3  10 23183.8 935.511   4
   2  -3  10 22430.3 742.430   2
   2  -3  10 24168.5 755.680   7
   2   3 -10 23517.1 927.296  23
   2  -3   9 75165.5 2079.83   2
  -2   3   9 79235.1 2281.35   4
   2  -3   9 76889.7 2066.81   7
   2   3  -9 78393.1 2276.05  23
   2   3  -8 42076.4 1392.65  23
   2  -3   8 43227.2 1253.12   2
   2  -3   8 42429.4 1215.02   7
  -2   3   8 44564.5 1396.16   4
   2   3  -7 7238.74 410.237  23
  -2   3   7 7388.19 400.955   4
   2  -3   7 7537.18 311.036   7
   2  -3   7 7326.87 439.180   1
   2  -3   7 7185.61 407.159  20
  -2   3   6 31739.0 1067.59  22
   2  -3   6 31604.4 1032.26  20
  -2   3   6 29672.9 873.051   5
  -2  -3  -6 30109.6 862.131   2
  -2   3   6 30685.1 1009.10   4
   2  -3   6 28454.4 1042.94   1
  -2  -3  -6 30716.0 1098.00  21
   2   3  -6 30862.9 1042.74  23
  -2   3   5 32827.3 932.529   5
  -2  -3  -5 34490.4 1139.46  21
  -2  -3  -5 34401.9 954.994   2
   2   3  -5 32225.2 1081.44  23
  -2   3   5 32527.2 1045.32   4
   2  -3   5 31473.0 1090.32   1
  -2   3   5 32136.0 1102.44  22
   2  -3   5 31197.7 1058.80  20
   2  -3   5 32754.9 939.345   7
  -2   3   4 99696.7 2680.37   4
  -2   3   4 99929.4 2572.30   5
  -2  -3  -4 101714. 2767.66  21
   2  -3   4 96261.0 2572.44   7
   2  -3   4 98905.1 2737.42   1
  -2   3   4 105650. 2765.63  22
   2  -3   4 104288. 2731.87  20
   2   3  -4 102834. 2739.11  23
  -2  -3  -4 97615.4 2609.62   2
  -2  -3  -3 68450.0 1720.86  21
  -2   3   3 67437.5 1719.96  22
   2  -3   3 65295.7 1693.33  20
  -2  -3  -3 67571.8 1603.46   2
   2  -3   3 65124.2 1701.36   1
   2  -3   3 64542.0 1523.93   7
   2   3  -3 65048.4 1702.30  23
  -2   3   2 7545.90 393.272  22
   2  -3   2 7928.18 390.262  20
  -2  -3  -2 7103.46 369.471  21
  -2  -3  -2 7451.05 339.398   2
  -2   3   2 7316.15 255.384  23
   2   3  -2 7407.49 385.360  23
  -2  -3  -1 63974.2 1794.43  21
  -2  -3  -1 59183.2 1764.91   2
  -2   3   1 62303.4 1679.73   5
  -2   3   1 67106.6 1860.32  22
  -2   3   1 64966.0 1816.92  21
   2  -3   1 62724.8 1784.66   1
  -2   3   1 64931.9 1677.11  23
   2  -3   1 64502.9 1834.96  20
   2   3  -1 70312.2 1860.22  23
  -2  -3   0 15616.5 557.451   2
  -2   3   0 14230.4 469.592  23
  -2  -3   0 12724.5 511.101  21
   2  -3   0 14172.7 520.725   1
   2   3   0 13548.2 571.882  23
  -2   3   0 14349.1 543.264  21
  -2   3  -1 68490.7 1834.54  21
   2  -3  -1 64985.3 1783.36   1
  -2  -3   1 64575.8 1794.86  21
  -2  -3   1 64269.6 1853.83   2
   2   3   1 66222.3 1898.59  23
   2  -3  -2 7703.05 395.146  20
  -2   3  -2 7568.80 350.795  21
  -2  -3   2 7616.08 383.610   2
   2  -3  -2 7357.77 308.749   1
   2   3   2 7275.97 402.993  23
  -2  -3   2 7982.66 332.600  21
  -2  -3   3 63885.2 1761.52  21
   2   3   3 67090.0 1925.16  23
   2  -3  -3 67064.4 1903.78  20
   2  -3  -3 64416.1 1725.57   1
  -2   3  -3 64107.8 1802.73  21
   2   3   3 66738.6 1727.43   6
  -2  -3   3 64161.7 1879.36   2
  -2   3  -4 99982.0 2621.21  21
  -2  -3   4 96749.2 2566.16  21
   2  -3  -4 94663.1 2712.86  20
   2   3   4 104481. 2779.16  23
   2   3   4 97798.7 2643.71   4
   2  -3  -4 96284.8 2499.66   1
  -2  -3   4 104108. 2734.78   2
  -2   3  -5 32822.7 1013.82  21
   2  -3  -5 32615.2 1113.98  20
  -2  -3   5 32958.7 1120.90   2
   2   3   5 31699.7 1140.27  23
   2   3   5 34149.8 1058.99   4
  -2   3  -6 29786.9 936.776  21
   2   3   6 29495.2 982.848   4
   2  -3  -6 29274.5 1041.27  20
  -2  -3   6 27996.0 1010.47   3
   2  -3  -7 8132.80 454.027  20
   2   3   7 7451.09 404.355   4
  -2   3  -7 7172.57 356.844  21
  -2  -3   7 6800.09 413.078   3
   2   3   8 43583.8 1415.14   4
   2  -3  -8 44512.7 1473.77  20
  -2   3  -8 44157.8 1335.41  21
  -2  -3   8 44049.5 1461.97   3
  -2  -3   8 45365.9 1495.55   2
  -2  -3   9 80150.2 2381.07   2
  -2   3  -9 79343.4 2209.45  21
   2   3   9 81115.6 2329.67   4
   2  -3  -9 79721.0 2368.79  20
   2   3   9 74902.7 2201.88   1
  -2   3 -10 23515.8 840.631  21
   2  -3 -10 24371.5 981.180  20
   2   3  10 22617.6 816.490   1
   2   3  10 24063.5 945.658   4
   2   3  10 22899.2 762.244   6
  -2  -3  10 23501.6 974.218   2
   2   3  11 7581.99 389.478   1
  -2   3 -11 7431.82 409.524  21
   2  -3 -11 8528.14 530.078  20
   2   3  11 7597.91 374.588  15
   2   3  11 8821.31 516.592   4
   2   3  11 8066.80 367.465   6
  -2  -3  11 7510.07 361.356  19
  -2  -3  11 7609.22 508.469   2
   2   3  11 7054.55 365.963  13
   2   3  11 7455.01 372.012   8
   2   3  12 15757.6 622.031  15
   2  -3 -12 15688.2 786.488  20
   2   3  12 16087.2 620.909   8
   2   3  12 15141.1 562.955   9
   2   3  12 17569.6 813.185   4
  -2  -3  12 16085.4 798.888   2
   2   3  12 15524.7 611.781  13
   2   3  12 16330.0 610.189  19
  -2  -3  12 15961.4 608.453  19
   2   3  12 16384.0 605.742   6
  -2  -3  13 2451.26 213.447  19
   2   3  13 2532.52 189.875   9
   2   3  13 2502.06 306.938   4
  -2  -3  13 3078.44 334.908   2
   2   3  13 2876.95 228.954  13
   2   3  13 2566.04 231.422  15
   2   3  13 3085.00 229.143   6
   2  -3 -13 2584.99 311.717  20
   2  -3 -14 1883.71 276.209  20
  -2  -3  14 1869.47 191.950  19
   2   3  14 2109.02 200.329   6
   2   3  14 2204.11 226.092  15
  -2  -3  14 1725.87 270.358   2
   2   3  14 2060.62 200.580  13
   2  -3 -15 5231.49 446.185  20
  -2  -3  15 5179.66 333.779  19
   2   3  15 5351.38 347.091  15
   2   3  15 5001.92 306.721  12
   2   3  15 4568.88 304.801  13
  -2  -3  15 4820.46 435.855   2
   2   3  15 5209.24 319.523   6
  -2  -3  16 38935.8 1275.11  19
   2  -3 -16 36417.0 1464.38  20
  -2  -3  16 38438.0 1181.59  15
   2   3  16 40051.6 1281.45   8
   2   3  16 39671.9 1292.60  15
  -2  -3  16 39191.2 1489.71   2
   2   3  16 39363.3 1231.63  13
   2   3  16 38918.4 1215.46  12
   2   3  16 41563.7 1258.97   6
   2   3  17 14481.2 615.414   6
   2   3  17 15825.2 657.206   8
  -2  -3  17 16310.3 663.044  19
  -2  -3  17 14952.6 573.106  15
   2   3  17 14468.9 652.015  15
   2   3  17 15500.0 605.953  13
   2   3  17 15240.3 593.692  12
   2   3  18 1383.34 165.643  13
  -2  -3  18 1477.51 189.925  19
   2   3  18 1500.24 199.349   8
   2   3  18 1266.31 198.044  15
   2   3  18 1432.50 156.054  12
  -2  -3  19 5033.36 333.590  19
   2   3  19 5847.68 356.035   8
   2   3  19 5027.89 351.226  15
   2   3  20 2126.80 213.622   8
   2   3  20 2165.42 230.559  15
  -2  -3  20 2011.56 211.153  19
   2   3  21 6354.74 362.561  15
  -2  -3  21 6235.69 349.488  19
   2   3  21 6215.16 339.838   8
   2   3  22 868.757 131.715   8
  -2  -3  22 874.945 135.066  19
   2   3  22 757.216 136.627  15
  -2  -3  23 551.443 104.929  19
   2   3  23 408.876 90.0026   8
   2   3  23 481.980 105.184  15
   2   3  24 1321.01 109.375   8
   2   3  24 1397.30 132.934  15
  -2  -3  24 1029.38 111.126  19
   2   3  25 2499.66 141.990  15
   2  -4  24 54.2201 44.9403   8
   2  -4  24 105.477 46.8986  19
   2  -4  23 3020.17 183.779  19
   2  -4  23 2695.74 177.423   8
   2  -4  22 1405.95 148.249   8
   2  -4  22 1328.68 145.268  19
  -2   4  21 5422.21 326.730  15
   2  -4  21 6137.34 322.433  19
   2  -4  21 5958.92 334.906   8
  -2   4  20 13052.5 577.188  15
   2  -4  20 13486.6 558.445  19
   2  -4  20 13384.5 578.858   8
   2  -4  19 7608.94 424.988   8
  -2   4  19 7245.02 416.520  15
   2  -4  19 7994.55 413.303  19
   2  -4  18 8528.12 612.017   1
  -2   4  18 9565.67 484.439  15
   2  -4  18 8187.20 439.892  19
   2  -4  18 9001.71 403.520  15
   2  -4  18 8946.89 477.389   8
  -2  -4 -18 8944.24 714.276  21
  -2  -4 -17 5224.76 552.101  21
   2  -4  17 5468.84 314.611  15
   2  -4  17 6398.45 372.565  19
   2  -4  17 5598.75 378.472   8
  -2   4  17 5476.81 363.165  15
   2  -4  17 5367.87 297.052   7
   2  -4  17 5652.23 504.148   1
  -2   4  16 4496.46 295.264  10
   2   4 -16 4971.15 452.844  23
   2  -4  16 4751.20 326.713  19
   2  -4  16 5558.90 367.870   8
  -2   4  16 4803.37 340.852  15
   2  -4  16 5582.76 306.076   7
  -2  -4 -16 5897.79 577.217  21
   2  -4  16 4928.29 475.177   1
   2  -4  16 4957.56 296.708  15
   2   4 -15 14017.8 788.965  23
   2  -4  15 14829.7 619.421  19
  -2   4  15 14479.0 594.054  10
  -2  -4 -15 16281.1 957.455  21
   2  -4  15 15038.6 578.452   7
  -2   4  15 14887.6 639.179  15
   2  -4  15 14911.3 845.397   1
   2  -4  15 13545.2 560.955  15
  -2   4  14 2076.50 203.994  10
  -2  -4 -14 2047.66 348.658  21
  -2   4  14 2609.61 334.561   4
   2  -4  14 2284.74 199.615   7
   2  -4  14 2000.80 212.147  19
   2  -4  14 2105.81 319.821   1
  -2   4  14 2255.29 227.657  15
   2   4 -14 1890.63 282.990  23
   2  -4  14 2145.95 195.855  15
  -2   4  13 6866.46 384.302  15
   2  -4  13 7576.43 559.272   1
  -2   4  13 6362.26 358.302  10
  -2   4  13 6570.16 509.534   4
   2  -4  13 6611.73 367.056  19
   2   4 -13 7193.09 516.474  23
   2  -4  13 6913.44 346.199  15
   2  -4  13 6903.70 351.937   7
  -2   4  12 1756.96 261.254   4
   2   4 -12 1317.26 242.617  23
  -2   4  12 1816.95 189.262  10
   2  -4  12 1572.81 168.874   7
   2  -4  12 1555.43 161.779  15
   2  -4  12 1574.89 261.570   1
  -2   4  12 1311.96 174.751  15
   2  -4  12 1681.47 178.109  19
  -2   4  11 4688.99 289.042  10
   2   4 -11 3984.21 377.582  23
   2  -4  11 4208.89 267.612  19
  -2   4  11 4454.50 384.361   4
  -2   4  11 4572.77 289.489  15
   2  -4  11 4609.90 271.608   7
  -2   4  10 36025.7 1132.81  10
   2  -4  10 36127.3 1157.05   2
   2  -4  10 36354.0 1111.03  19
  -2   4  10 36637.9 1335.81   4
   2  -4  10 38289.6 1115.81   7
  -2   4  10 35916.0 1130.23  15
   2   4 -10 37605.6 1349.43  23
  -2  -4  -9 15320.7 774.858  21
   2  -4   9 14087.2 525.342   7
   2   4  -9 14631.7 700.562  23
   2  -4   9 13689.3 571.846   2
  -2   4   9 13035.9 666.064   4
  -2  -4  -8 38491.1 1429.12  21
   2  -4   8 41431.1 1170.94   7
   2  -4   8 38912.5 1238.08   2
   2  -4   8 37780.5 1385.71   1
  -2   4   8 39309.4 1350.33   4
   2   4  -8 40613.1 1386.32  23
  -2  -4  -7 22358.5 925.907  21
   2  -4   7 21167.8 869.974  20
  -2   4   7 20277.1 837.638   4
   2   4  -7 21933.1 889.433  23
   2  -4   7 22936.2 908.914   1
  -2  -4  -6 27567.7 1042.11  21
  -2   4   6 28444.2 1048.71  22
   2  -4   6 27157.6 1007.80  20
  -2   4   6 27086.2 978.880   4
   2   4  -6 26877.8 1015.61  23
   2  -4   6 28705.4 1038.27   1
  -2  -4  -6 26721.4 854.706   2
   2   4  -5 71795.0 2105.79  23
   2  -4   5 71589.1 2088.49  20
  -2   4   5 72102.2 2124.47  22
   2  -4   5 66971.6 1881.09   7
  -2   4   5 70291.3 2045.27   4
  -2  -4  -5 71934.5 1948.99   2
  -2  -4  -5 73291.1 2122.75  21
   2  -4   5 70999.9 2092.78   1
  -2   4   4 34411.8 1155.77  22
   2  -4   4 33481.8 1117.17  20
   2   4  -4 35286.9 1146.57  23
  -2  -4  -4 33292.6 1016.48   2
  -2  -4  -4 33656.5 1117.41  21
   2  -4   4 34491.9 946.240   7
   2  -4   4 33049.7 1107.88   1
  -2   4   3 87089.3 2450.67  22
   2  -4   3 83084.9 2386.44   1
   2  -4   3 86462.7 2224.42   7
   2   4  -3 90639.4 2455.52  23
  -2  -4  -3 89553.0 2407.38  21
   2  -4   3 87868.1 2437.86  20
  -2  -4  -3 82735.7 2323.35   2
  -2   4   3 80577.1 2197.33  23
  -2  -4  -2 1459.96 167.815  21
  -2   4   2 1118.83 109.168  23
   2   4  -2 1343.98 186.273  23
   2  -4   2 1199.63 112.717   7
  -2  -4  -2 1733.00 173.081   2
   2  -4   2 1423.87 173.278   1
  -2  -4  -1 41115.5 1282.16  21
  -2   4   1 44050.3 1219.18  23
  -2  -4  -1 43199.5 1317.71   2
   2   4  -1 42702.6 1381.75  23
   2  -4   1 42478.2 1176.04   7
   2  -4   1 44085.3 1309.07   1
  -2  -4   0 271940. 6960.35  21
  -2  -4   0 270338. 7030.66   2
   2  -4   0 268862. 6846.53   7
  -2   4   0 276773. 6932.37  23
   2  -4   0 288725. 6987.89   1
   2   4   0 287677. 7118.61  23
  -2  -4   1 42405.7 1264.74  21
  -2  -4   1 46071.7 1385.99   2
  -2   4  -1 44118.1 1291.68  23
   2  -4  -1 45889.4 1411.53  20
   2   4   1 43586.9 1423.05  23
  -2  -4   1 41253.2 1353.78   3
   2  -4  -1 46190.3 1292.46   1
  -2   4  -2 1404.38 144.895  21
   2  -4  -2 1384.54 185.481  20
  -2  -4   2 1482.75 176.887   3
  -2  -4   2 1347.88 179.236   2
   2   4   2 1129.59 183.657  23
   2  -4  -2 1120.39 118.734   1
  -2  -4   2 1194.63 117.999  21
   2  -4  -3 95095.3 2524.80  20
  -2  -4   3 80283.2 2459.14   2
   2   4   3 86431.5 2526.55  23
  -2  -4   3 85042.1 2276.81  21
  -2  -4   3 92149.1 2474.64   3
  -2   4  -3 85184.5 2340.92  21
   2  -4  -3 88865.9 2283.66   1
  -2  -4   4 32016.1 917.565  21
   2  -4  -4 32880.9 1141.01  20
  -2  -4   4 33995.5 1146.31   2
   2  -4  -4 31708.5 890.880   1
  -2  -4   4 35306.3 1122.92   3
  -2   4  -4 31705.8 981.362  21
  -2   4  -5 67121.3 1868.01  21
   2  -4  -5 66907.3 2049.45  20
  -2  -4   5 62410.1 1995.67   3
  -2  -4   5 70230.8 2075.17   2
   2   4   5 68507.5 1842.23   6
   2  -4  -6 29530.5 1054.50  20
   2   4   6 28550.3 996.288   4
   2   4   6 27007.6 842.874   6
  -2  -4   6 28253.0 1015.29   3
  -2   4  -6 26584.5 855.815  21
  -2   4  -7 20863.1 707.559  21
  -2  -4   7 21513.1 872.898   3
   2  -4  -7 22751.4 899.045  20
   2   4   7 22380.7 857.972   4
   2   4   7 21575.6 705.049   6
   2  -4  -8 38937.6 1389.01  20
  -2  -4   8 40180.2 1419.58   2
   2   4   8 41871.6 1383.13   4
   2   4   8 40665.3 1186.06   6
  -2  -4   8 39528.6 1381.21   3
   2   4   9 13672.1 530.106   8
  -2  -4   9 15157.4 737.767   2
   2   4   9 14194.9 679.445   4
   2  -4  -9 14900.8 714.043  20
   2   4   9 13295.3 559.863   1
   2   4   9 13079.1 534.128  13
   2   4   9 13736.3 522.637   6
   2  -4 -10 37922.3 1366.53  20
   2   4  10 35465.2 1146.83   1
  -2  -4  10 35656.1 1120.63  19
   2   4  10 38414.8 1357.43   4
   2   4  10 36133.0 1123.86  15
   2   4  10 37094.3 1153.32  13
  -2  -4  10 38249.4 1401.27   2
   2   4  10 37290.2 1142.06   8
   2   4  10 39141.8 1136.32   6
   2   4  10 36934.2 1115.28   9
   2   4  11 4475.13 264.177   9
   2  -4 -11 4180.61 382.588  20
   2   4  11 4403.01 282.363   8
   2   4  11 4755.25 396.598   4
   2   4  11 4562.63 278.581  15
   2   4  11 4545.27 291.381  13
   2   4  11 5088.22 285.306   6
  -2  -4  11 4504.90 407.421   2
  -2  -4  11 3717.88 259.878  19
   2   4  12 1370.52 154.235   9
   2  -4 -12 1687.90 250.334  20
   2   4  12 1482.94 179.603   8
   2   4  12 1494.49 175.441  15
   2   4  12 1622.69 250.487   4
  -2  -4  12 1422.91 173.168  19
   2   4  12 1905.73 182.455   6
   2   4  12 1672.53 183.395  13
  -2  -4  12 1308.95 243.634   2
   2   4  13 7153.19 369.378   6
   2   4  13 6918.00 339.134   9
   2   4  13 6217.76 504.769   4
  -2  -4  13 6852.07 375.235  19
   2  -4 -13 8064.59 539.368  20
  -2  -4  13 5966.19 494.320   2
   2   4  13 6813.82 379.995  15
   2   4  13 6658.84 372.450  13
   2   4  13 6874.27 379.642  12
   2  -4 -14 1802.80 274.755  20
   2   4  14 2317.43 188.785   9
  -2  -4  14 2195.22 223.500  19
   2   4  14 2320.72 221.482  13
   2   4  14 2442.93 234.962  15
   2   4  14 2002.73 300.409   4
  -2  -4  14 2091.31 296.691   2
   2   4  14 1993.37 210.587  12
   2   4  14 2347.70 212.116   6
   2  -4 -15 14820.5 794.932  20
   2   4  15 15349.6 616.900   6
   2   4  15 13942.8 624.859  15
   2   4  15 13928.4 825.151   4
  -2  -4  15 14639.8 814.583   2
  -2  -4  15 15067.2 637.940  19
   2   4  15 15182.3 616.772  12
   2   4  15 15380.1 623.478  13
  -2  -4  16 5124.71 344.947  19
   2   4  16 5614.91 358.447  15
  -2  -4  16 4907.77 451.792   2
   2   4  16 5468.88 333.987  13
   2   4  16 5415.34 331.739  12
   2   4  16 5063.11 321.741   6
   2   4  17 5833.92 346.205   6
   2   4  17 6254.72 349.916  13
   2   4  17 5411.50 305.852  10
  -2  -4  17 6396.28 381.202  19
   2   4  17 5946.05 364.995   8
   2   4  17 5522.30 364.816  15
   2   4  17 5670.50 335.495  12
   2   4  18 9268.63 467.038   8
  -2  -4  18 8708.72 461.842  19
   2   4  18 10084.1 491.167  15
   2   4  18 9170.34 426.673  13
   2   4  18 8709.35 416.704  12
   2   4  19 7798.53 410.014   8
  -2  -4  19 7965.89 419.350  19
   2   4  19 7152.20 408.220  15
   2   4  20 13390.3 555.744   8
  -2  -4  20 13464.1 567.036  19
   2   4  20 13351.3 572.597  15
  -2  -4  21 6077.27 326.390  19
   2   4  21 5637.18 328.047  15
   2   4  21 5821.49 316.335   8
   2   4  22 1418.27 144.715   8
  -2  -4  22 1314.85 143.764  19
   2   4  22 1331.77 156.490  15
   2   4  23 3161.54 181.536   8
   2   4  23 3225.08 202.157  15
  -2  -4  23 2863.42 186.107  19
  -2  -4  24 148.166 54.5472  19
   2   4  24 72.6475 46.2820   8
   2   4  24 72.8318 60.6839  15
   2  -5  23 1664.53 124.444  19
   2  -5  23 1473.94 117.138   8
   2  -5  22 1736.79 154.251   8
   2  -5  22 1947.33 150.546  19
   2  -5  21 2884.06 216.855   8
   2  -5  21 3021.97 213.113  19
   2  -5  20 9126.11 422.876  19
  -2   5  20 9709.42 449.742  15
   2  -5  20 9034.16 436.605   8
   2  -5  19 3336.34 273.699   8
  -2   5  19 3945.80 285.498  15
   2  -5  19 3883.16 270.183  19
   2  -5  18 12178.4 536.483  19
   2  -5  18 11652.9 548.671   8
  -2   5  18 11191.1 537.290  15
  -2   5  17 16.2260 112.788  15
  -2   5  17 222.316 101.410  10
   2  -5  17 154.115 99.7344  19
   2  -5  17 51.4294 119.161   8
  -2  -5 -17-43.7812 157.139  21
   2  -5  17 35.5100 142.499   1
  -2   5  16 10438.0 494.067  10
   2   5 -16 11580.5 729.174  23
   2  -5  16 11298.7 524.707  19
   2  -5  16 10905.9 550.275   8
  -2   5  16 10672.2 525.295  15
   2  -5  16 10636.9 471.693   7
   2  -5  16 12211.8 772.332   1
   2  -5  15 3012.89 254.463  19
  -2   5  15 2779.37 363.990   4
  -2   5  15 2667.64 240.302  10
   2   5 -15 2622.04 353.591  23
  -2   5  15 2855.93 262.878  15
   2  -5  15 3138.56 237.493   7
   2  -5  15 2915.48 384.980   1
  -2   5  14 8705.01 448.999  10
   2  -5  14 9085.14 455.709  19
  -2   5  14 8391.61 618.311   4
  -2   5  14 9136.05 464.703  15
   2  -5  14 8645.72 424.555   7
   2  -5  14 9199.15 655.519   1
   2   5 -14 8614.83 619.712  23
  -2  -5 -13 4222.83 471.095  21
  -2   5  13 4247.57 303.237  10
   2  -5  13 4789.47 309.132  19
  -2   5  13 4597.52 437.460   4
   2  -5  13 3944.20 429.412   1
   2  -5  13 4342.34 286.430   7
  -2   5  13 4256.62 304.461  15
   2   5 -13 4304.29 432.557  23
  -2  -5 -12 16531.3 921.373  21
  -2   5  12 14549.7 612.791  15
   2  -5  12 15114.4 602.306   7
   2  -5  12 14480.0 605.640  19
  -2   5  12 14998.6 624.712  10
   2   5 -12 15278.3 828.490  23
  -2  -5 -11 2359.74 346.049  21
   2  -5  11 3119.70 271.249   2
   2  -5  11 3385.17 241.951  19
  -2   5  11 2855.36 332.165   4
   2   5 -11 2643.85 335.319  23
   2  -5  11 3477.80 242.744   7
  -2   5  11 3102.97 245.586  15
  -2   5  11 3371.25 260.974  10
   2  -5  10 1710.30 282.833   1
  -2   5  10 1737.66 185.365  10
   2  -5  10 1833.65 214.345   2
  -2  -5 -10 1920.12 295.963  21
  -2   5  10 1622.58 177.557  15
   2  -5  10 1581.10 169.173   7
  -2   5  10 1673.96 248.934   4
   2  -5  10 1790.08 180.678  19
   2  -5  10 1543.88 170.636  14
   2   5 -10 1942.16 277.524  23
  -2   5   9 233.000 93.1786  10
  -2  -5  -9 456.972 170.112  21
   2  -5   9 298.380 88.2244  19
  -2   5   9 479.441 152.599   4
   2  -5   9 392.287 108.537   7
   2  -5   9 280.461 148.326   1
   2  -5   9 323.273 107.118   2
   2   5  -9 135.525 119.346  23
  -2   5   9 229.603 97.6082  15
   2  -5   9 264.553 90.9706  14
   2  -5   8 7554.71 354.248  19
  -2   5   8 6924.24 347.588  15
   2  -5   8 7362.19 508.567   1
   2  -5   8 7092.65 426.307   2
  -2   5   8 7557.23 484.691   4
   2  -5   8 7469.71 369.403  14
   2   5  -8 8635.47 537.167  23
  -2  -5  -8 7614.66 527.245  21
  -2   5   8 7828.48 381.269  10
   2   5  -7 7817.29 507.972  23
  -2  -5  -7 7643.02 508.380  21
  -2  -5  -7 7585.32 376.854   2
   2  -5   7 7712.34 506.961  20
  -2   5   7 7890.73 488.738   4
   2  -5   7 8436.41 518.720   1
   2  -5   6 12278.0 638.249   1
  -2   5   6 13239.0 681.923  22
  -2  -5  -6 13173.6 655.122  21
  -2  -5  -6 11534.0 511.859   2
   2  -5   6 11597.2 635.363  20
  -2   5   6 12026.1 610.256   4
   2  -5   6 12324.2 472.299   7
   2   5  -6 12474.6 654.636  23
  -2   5   5 15963.8 774.450  22
   2   5  -5 17764.0 786.810  23
   2  -5   5 16902.0 581.774   7
   2  -5   5 16816.8 762.604  20
   2  -5   5 17591.1 757.863   1
  -2   5   5 16413.8 725.780   4
  -2  -5  -5 15125.0 637.382   2
  -2  -5  -5 16652.8 740.809  21
  -2  -5  -4 9944.75 517.135  21
   2  -5   4 10678.5 562.976  20
   2  -5   4 9865.94 523.542   1
   2  -5   4 9683.90 385.116   7
   2   5  -4 9380.52 541.379  23
  -2  -5  -4 10092.6 478.631   2
  -2   5   4 8876.67 371.311  23
   2  -5   3 39545.2 1279.24   1
  -2  -5  -3 36082.2 1219.39   2
   2  -5   3 38989.4 1100.53   7
   2   5  -3 37189.6 1331.46  23
  -2  -5  -3 40428.7 1267.38  21
  -2   5   3 36182.2 1108.37  23
   2  -5   2 21874.5 821.892   1
  -2  -5  -2 21299.7 790.781  21
  -2  -5  -2 22153.5 824.784   2
   2  -5   2 21167.7 676.340   7
   2   5  -2 22401.7 898.853  23
  -2   5   2 21101.3 715.482  23
  -2  -5  -1 53965.9 1642.49   2
  -2  -5  -1 53873.5 1560.47  21
  -2   5   1 51991.7 1521.17  23
   2  -5   1 51662.5 1443.65   7
   2  -5   1 54023.6 1601.96   1
   2   5  -1 54449.4 1720.96  23
  -2   5   0 27200.0 1025.38  22
   2  -5   0 25760.7 986.954  20
  -2  -5   0 25616.5 946.341   2
  -2  -5   0 24356.9 927.686   3
  -2  -5   0 24417.6 829.104  21
  -2   5   0 25817.5 866.945  23
   2  -5   0 26121.0 768.097   7
   2  -5   0 25220.0 878.832   1
   2   5   0 27147.7 1019.24  23
   2  -5  -1 55344.1 1540.38   1
  -2   5  -1 50740.2 1552.22  23
   2  -5  -1 52370.7 1424.65   7
  -2  -5   1 53694.9 1666.47   2
  -2  -5   1 50708.8 1468.13  21
   2   5   1 50270.3 1711.16  23
  -2  -5   1 55302.1 1651.79   3
   2  -5  -1 55629.6 1699.39  20
  -2   5  -1 50661.0 1701.43  22
   2  -5  -2 20686.2 623.930   7
  -2  -5   2 18953.0 631.094  21
   2  -5  -2 21235.4 702.230   1
   2  -5  -2 21545.3 865.720  20
  -2  -5   2 21607.0 822.974   3
   2   5   2 21416.2 897.057  23
  -2   5  -2 20110.5 772.712  23
  -2  -5   2 20694.2 835.860   2
  -2  -5   3 40952.7 1360.21   2
   2  -5  -3 39689.5 1359.82  20
   2  -5  -3 41009.6 1086.83   7
   2  -5  -3 37166.2 1126.89   1
  -2  -5   3 37772.5 1304.84   3
  -2   5  -3 39533.2 1282.98  23
   2  -5  -4 9949.23 548.824  20
  -2   5  -4 9853.28 504.060  23
  -2  -5   4 9112.85 530.362   2
   2   5   4 9657.93 391.556   6
  -2  -5   4 9433.94 510.441   3
  -2  -5   5 15891.8 766.304   2
   2  -5  -5 15878.2 746.163  20
   2   5   5 16337.6 574.773   6
  -2  -5   5 17208.4 732.585   3
   2  -5  -6 12331.6 647.879  20
   2   5   6 10864.9 590.424   4
   2   5   6 12544.6 690.557  23
   2   5   6 12736.0 480.745   6
  -2  -5   6 13007.5 626.831   3
   2   5   7 7248.05 349.948   9
   2  -5  -7 7662.70 501.098  20
   2   5   7 7689.14 358.478   8
   2   5   7 7162.72 522.502  23
   2   5   7 7912.92 481.899   4
   2   5   7 7401.30 361.131  13
   2   5   7 7222.03 343.593   6
  -2  -5   7 7601.29 473.323   3
   2   5   8 7431.61 359.646   9
   2  -5  -8 6509.15 477.138  20
   2   5   8 7526.34 366.323   8
  -2  -5   8 8090.12 538.722   2
  -2  -5   8 7534.38 356.182  19
   2   5   8 8871.93 524.641   4
  -2  -5   8 7817.18 500.619   3
   2   5   8 6844.21 524.794  23
   2   5   8 7993.05 383.507  13
   2   5   8 7235.00 350.841   6
  -2  -5   9 385.610 104.023  19
   2  -5  -9 312.512 126.756  20
   2   5   9 249.973 97.3392   9
   2   5   9 380.502 110.420   8
   2   5   9 303.959 136.549   4
   2   5   9 260.294 93.3416   6
  -2  -5   9 143.758 136.693   2
   2   5  10 1699.29 173.288   9
   2  -5 -10 1490.06 243.381  20
   2   5  10 1965.49 193.523   8
  -2  -5  10 1603.90 174.379  19
   2   5  10 1731.69 173.542  15
   2   5  10 1736.03 251.646   4
   2   5  10 1687.69 186.526  13
   2   5  10 1884.38 178.118   6
  -2  -5  10 1704.27 272.572   2
  -2  -5  10 1534.38 155.868  18
   2   5  11 3277.87 250.997   8
  -2  -5  11 3138.06 239.825  19
   2  -5 -11 3620.13 362.514  20
  -2  -5  11 3154.20 376.379   2
   2   5  11 2740.24 220.077  15
   2   5  11 3147.34 234.924   9
   2   5  11 3101.19 253.432  13
   2   5  11 2781.08 327.502   4
   2   5  11 2797.31 223.311   6
   2   5  11 2955.86 244.761  12
   2   5  12 15424.4 593.807   9
   2   5  12 15258.3 622.620   8
  -2  -5  12 15238.5 620.831  19
   2   5  12 14961.1 815.913   4
  -2  -5  12 15781.3 856.244   2
   2   5  12 15440.5 634.884  13
   2   5  12 15338.9 603.199   6
   2   5  12 14636.6 597.175  15
   2   5  12 15769.8 637.181  12
   2  -5 -12 14687.3 789.433  20
   2   5  13 4813.00 317.723  13
   2  -5 -13 3820.66 386.754  20
  -2  -5  13 5296.33 326.093  19
   2   5  13 4710.62 450.198   4
  -2  -5  13 4833.58 459.380   2
   2   5  13 4394.81 297.019  15
   2   5  13 4287.12 278.745   9
   2   5  13 4341.71 313.249  12
   2   5  13 4635.78 297.390   6
  -2  -5  14 9055.20 465.718  19
   2   5  14 9199.84 644.289   4
   2   5  14 9552.98 450.726   6
  -2  -5  14 9292.66 645.645   2
   2  -5 -14 9387.80 610.988  20
   2   5  14 8979.90 451.866  15
   2   5  14 9241.36 466.458  13
   2   5  14 8736.77 457.894  12
  -2  -5  15 2865.84 258.264  19
   2   5  15 2445.65 239.119  15
   2   5  15 2498.24 349.456   4
   2   5  15 2546.95 239.619  12
   2   5  15 2452.46 222.222   6
   2   5  15 2909.13 256.707  13
  -2  -5  15 1949.56 297.891   2
   2   5  16 11794.3 532.620  15
  -2  -5  16 10374.9 684.868   2
   2   5  16 12090.0 530.463  13
  -2  -5  16 10265.2 522.902  19
   2   5  16 11976.9 515.017   6
   2   5  16 10811.2 512.690  12
  -2  -5  17 205.806 102.469  19
   2   5  17 15.2333 104.727   8
   2   5  17 159.960 94.5863  10
   2   5  17 106.144 121.722  15
   2   5  17 80.4445 97.2771   6
   2   5  17 154.634 109.027  12
  -2   5 -17 118.563 153.228  23
   2   5  18 12313.0 541.335   8
   2   5  18 12208.5 535.013  15
   2   5  18 11318.4 495.019  12
  -2  -5  18 11361.6 531.558  19
   2   5  19 3927.35 277.294   8
  -2  -5  19 3669.93 275.309  19
   2   5  19 4318.61 285.137  15
   2   5  19 3881.87 243.739  12
   2   5  20 9473.29 429.838   8
  -2  -5  20 10014.0 447.335  19
   2   5  20 9328.10 432.952  15
   2   5  21 3179.79 216.745   8
  -2  -5  21 3365.16 229.236  19
   2   5  21 3288.77 224.882  15
   2   5  22 1938.90 153.254   8
   2   5  22 1857.11 156.285  15
  -2  -5  22 1701.28 145.522  19
  -2  -5  23 1548.68 126.865  19
   2   5  23 1931.17 134.088  15
   2  -6  22 4019.03 199.421  19
   2  -6  22 4000.64 203.247   8
   2  -6  21 8438.36 349.402  19
   2  -6  21 8221.14 358.092   8
   2  -6  20 6129.63 312.798  19
   2  -6  20 5787.36 317.896   8
   2  -6  19 13924.8 561.063  19
   2  -6  19 15059.7 600.251   8
   2  -6  18 5558.98 329.282  19
   2  -6  18 5309.34 345.191   8
  -2   6  17 8615.08 440.638  15
   2  -6  17 9292.82 449.046  19
   2  -6  17 8353.55 456.950   8
  -2   6  17 8702.73 425.007  10
  -2  -6 -16 11954.8 835.463  21
   2   6 -16 11406.1 758.316  23
  -2   6  16 12964.2 570.840  15
   2  -6  16 12758.0 810.473   1
   2  -6  16 13318.2 578.866  19
   2  -6  16 13819.0 617.481   8
  -2   6  16 13287.7 817.645   4
  -2   6  16 13407.3 573.077  10
   2  -6  15 19362.3 759.449  19
   2  -6  15 19438.0 730.480   7
  -2   6  15 18763.0 758.743  10
  -2  -6 -15 19519.6 1087.17  21
  -2   6  15 20252.0 1025.76   4
  -2   6  15 20819.9 774.001  15
   2   6 -15 21283.8 1049.65  23
   2  -6  15 21421.0 1087.46   1
   2   6 -14 3728.52 431.256  23
  -2   6  14 4231.06 309.402  10
  -2  -6 -14 4213.77 487.521  21
  -2   6  14 3807.06 420.580   4
  -2   6  14 4187.75 301.922  15
   2  -6  14 4585.78 316.912  19
   2  -6  14 3997.45 284.450   7
   2  -6  14 3894.27 463.053   1
   2  -6  13 1141.40 170.501  19
  -2   6  13 1205.63 246.147   4
  -2  -6 -13 1282.71 291.998  21
  -2   6  13 1131.88 172.555  15
   2  -6  13 1107.46 167.313   7
  -2   6  13 951.922 170.484  10
   2   6 -13 1082.00 260.284  23
  -2   6  12 12327.6 576.760  10
  -2   6  12 14592.0 805.662   4
   2  -6  12 12945.6 561.836  19
   2   6 -12 12535.1 779.299  23
  -2   6  12 12727.4 553.788  15
   2  -6  12 13121.2 562.795   7
  -2  -6 -12 12157.2 805.597  21
   2  -6  11 5913.58 348.628  19
   2   6 -11 6054.41 527.312  23
  -2   6  11 5586.41 490.293   4
  -2   6  11 5333.93 329.844  15
   2  -6  11 6470.69 543.430   1
   2  -6  11 6550.80 360.057   7
   2  -6  11 5349.65 397.430   2
  -2   6  11 5814.88 362.635  10
  -2  -6 -11 5698.96 524.604  21
  -2   6  10 2639.99 238.134  10
  -2  -6 -10 2422.82 341.463  21
   2  -6  10 2718.51 284.930   2
   2   6 -10 2621.76 348.056  23
   2  -6  10 2805.96 236.901  19
  -2   6  10 2260.68 215.603  15
   2  -6  10 2752.52 363.741   1
   2  -6  10 2709.54 226.591   7
   2  -6  10 2607.02 230.975  14
  -2   6  10 3001.14 344.766   4
  -2  -6  -9 21954.0 1007.20  21
   2  -6   9 19089.7 702.874  19
   2  -6   9 19217.1 959.051   1
  -2   6   9 19140.4 923.684   4
  -2   6   9 17904.0 683.393  15
   2   6  -9 19590.2 964.824  23
   2  -6   9 18925.5 721.151  14
   2  -6   9 19923.1 845.043   2
   2  -6   8 4085.32 284.501  14
   2  -6   8 4867.67 433.475   1
  -2   6   8 3954.50 382.262   4
  -2   6   8 3798.26 249.861  15
   2  -6   8 4566.95 360.246   2
  -2  -6  -8 4063.10 396.165  21
   2   6  -8 4237.89 420.895  23
  -2  -6  -7 10996.4 631.848  21
   2  -6   7 10656.5 634.263   1
  -2   6   7 10298.3 608.039   4
  -2   6   7 9943.78 464.506  10
   2  -6   7 10110.3 446.100   7
   2  -6   7 9733.62 461.486  14
   2  -6   7 9812.08 634.127  20
   2   6  -7 9920.60 634.372  23
  -2  -6  -6 41481.6 1402.57  21
   2  -6   6 38971.9 1443.74  20
   2  -6   6 38871.3 1399.13   1
  -2  -6  -6 35594.0 1232.63   2
  -2   6   6 36181.3 1164.97  10
   2  -6   6 37355.0 1137.95   7
   2   6  -6 37116.7 1425.93  23
   2  -6   6 35906.1 1165.81  14
  -2   6   6 37295.3 1370.55   4
  -2  -6  -5 25149.7 987.098   2
   2  -6   5 29727.5 1168.90  20
   2   6  -5 28211.8 1149.42  23
   2  -6   5 27130.5 882.520   7
   2  -6   5 28004.7 929.144  14
   2  -6   5 28617.7 1110.44   1
  -2   6   5 27047.5 912.625  10
  -2  -6  -5 29050.7 1091.13  21
  -2   6   4 14923.9 592.333  10
  -2  -6  -4 14449.1 679.302   2
   2  -6   4 17410.9 769.201   1
  -2  -6  -4 16531.5 725.530  21
   2  -6   4 16108.9 576.650   7
   2   6  -4 16317.2 803.939  23
  -2  -6  -3 19432.8 777.499  21
  -2  -6  -3 18056.3 791.523   2
   2  -6   3 20064.2 829.955   1
   2  -6   3 19919.1 660.730   7
   2  -6   3 19030.0 693.107  14
   2   6  -3 18444.3 879.112  23
  -2   6   3 18997.5 701.499  23
  -2   6   2 17833.4 841.698  22
  -2  -6  -2 17608.8 753.199   2
   2  -6   2 15962.0 714.234   1
   2  -6   2 16058.3 574.151   7
  -2   6   2 15620.1 632.819  23
  -2  -6  -2 16598.9 669.119  21
   2   6  -2 17355.9 821.671  23
  -2   6   1 67990.4 2178.28  22
   2  -6   1 72564.0 2190.03  20
  -2  -6  -1 66183.0 2082.96   2
  -2  -6  -1 68860.2 1942.01  21
   2  -6   1 68032.3 2026.64   1
   2  -6   1 68899.9 1860.76   7
  -2  -6  -1 66841.4 2065.38   3
   2   6  -1 68708.5 2181.19  23
  -2   6   1 66783.7 1965.20  23
  -2  -6   0 22599.1 885.645   3
  -2  -6   0 20815.8 720.658  21
   2   6   0 22597.9 971.046  23
   2  -6   0 20710.1 924.078  20
  -2   6   0 21910.9 817.070  23
   2  -6   0 21254.8 809.013   1
   2  -6   0 22023.7 695.657   7
  -2   6   0 21938.1 960.350  22
  -2  -6   0 20941.2 891.148   2
  -2  -6   1 67281.5 2146.67   2
   2  -6  -1 71323.0 2201.26  20
  -2   6  -1 73228.1 2068.20  23
  -2   6  -1 71364.0 2235.72  22
   2  -6  -1 67897.6 1873.00   7
  -2  -6   1 70637.8 2109.40   3
   2  -6  -1 68870.2 1995.16   1
   2  -6  -2 16763.1 788.388  20
  -2   6  -2 17659.8 720.012  23
   2  -6  -2 16288.1 542.051   7
  -2  -6   2 16788.7 731.217   3
  -2   6  -2 14820.5 790.606  22
  -2  -6   2 16091.4 772.406   2
   2  -6  -2 15202.7 602.576   1
   2  -6  -3 21853.2 915.699  20
  -2  -6   3 19510.5 882.126   2
  -2   6  -3 20019.2 921.623  22
  -2   6  -3 18865.8 804.211  23
   2   6   3 18035.9 662.359   9
   2   6   3 18829.2 660.561   6
  -2  -6   3 20399.0 830.521   3
   2   6   4 16427.8 827.621  23
   2  -6  -4 15125.3 769.269  20
  -2  -6   4 14366.4 759.145   2
   2   6   4 15918.7 589.240   9
  -2   6  -4 15496.0 724.746  23
   2   6   4 15584.7 572.899   8
   2   6   4 15516.3 586.735  13
   2   6   4 15947.0 579.587   6
  -2  -6   4 17062.6 742.321   3
   2   6   5 26376.0 895.174   9
  -2  -6   5 27417.1 1140.54   2
   2   6   5 28294.5 894.260   8
   2  -6  -5 28382.4 1135.66  20
  -2   6  -5 30239.6 1116.39  23
   2   6   5 26991.2 902.738  13
   2   6   5 27507.9 893.176   6
   2   6   5 28513.8 1191.73  23
  -2  -6   5 28423.7 1072.91   3
   2   6   6 39805.8 1491.31  23
   2   6   6 37865.3 1383.94   4
   2  -6  -6 40177.5 1431.43  20
   2   6   6 37672.9 1152.16   8
  -2  -6   6 37791.7 1437.15   2
   2   6   6 37625.6 1171.02  13
   2   6   6 35757.8 1139.91   6
  -2  -6   6 37278.5 1345.20   3
  -2   6  -6 39395.8 1394.96  23
   2   6   7 10048.1 446.437   8
   2   6   7 10071.6 599.653   4
   2   6   7 10168.1 453.601   9
   2   6   7 9796.52 456.314  13
   2   6   7 9376.86 428.597   6
   2  -6  -7 10023.0 616.395  20
   2   6   7 10947.8 687.309  23
   2   6   7 9820.22 456.488  12
  -2   6  -7 9872.14 612.817  23
  -2  -6   7 10399.0 587.736   3
   2   6   8 4075.95 275.907   9
   2  -6  -8 4310.90 401.087  20
  -2  -6   8 3924.13 267.823  18
  -2   6  -8 3676.37 375.963  23
   2   6   8 4538.38 395.582   4
   2   6   8 4742.14 450.242  23
   2   6   8 4486.39 283.923   8
   2   6   8 4539.13 295.575  13
   2   6   8 4149.29 265.559   6
   2   6   8 3884.58 276.989  12
  -2  -6   8 3798.63 361.316   3
  -2  -6   9 20253.5 991.603   2
   2   6   9 19179.4 715.372   9
  -2   6  -9 19057.8 948.698  23
   2   6   9 19434.4 723.304   8
  -2  -6   9 20291.2 731.094  19
   2  -6  -9 20445.1 947.185  20
  -2  -6   9 19300.6 713.152  18
   2   6   9 19526.8 943.909   4
   2   6   9 19820.6 739.442  13
   2   6   9 20116.8 717.882   6
   2   6   9 18698.2 732.397  12
  -2  -6  10 3024.42 242.698  19
  -2  -6  10 2465.66 341.094   2
  -2  -6  10 2964.04 228.858  18
   2   6  10 2681.62 220.613   6
   2   6  10 2730.88 333.821   4
  -2   6 -10 2215.88 322.402  23
   2  -6 -10 2282.50 305.731  20
   2   6  10 2705.55 235.040   8
   2   6  10 2638.88 225.275   9
   2   6  11 6099.37 347.142   9
   2  -6 -11 6941.47 517.222  20
  -2  -6  11 6602.96 372.827  19
  -2  -6  11 6076.67 334.654  18
   2   6  11 6383.70 381.495  13
  -2  -6  11 7197.14 567.449   2
   2   6  11 6554.96 353.026   6
  -2   6 -11 5913.09 537.042  23
   2   6  11 6104.82 361.834   8
   2   6  11 5853.72 503.663   4
   2   6  12 12742.3 564.689   8
  -2  -6  12 12424.1 560.246  19
  -2  -6  12 12634.6 507.401  18
   2   6  12 12974.6 775.201   4
  -2  -6  12 13048.6 801.720   2
   2   6  12 12273.0 515.306  15
   2   6  12 12562.8 536.523   9
   2   6  12 13066.2 581.534  13
   2   6  12 12118.2 565.438  12
   2  -6 -12 13332.0 745.291  20
  -2   6 -12 11876.0 777.765  23
   2   6  12 12550.8 536.636   6
  -2  -6  13 979.331 236.229   2
  -2   6 -13 1470.97 306.386  23
   2  -6 -13 1232.43 233.099  20
  -2  -6  13 1247.64 176.110  19
   2   6  13 793.058 206.988   4
   2   6  13 914.693 148.693  15
   2   6  13 1305.46 171.203   6
   2   6  13 908.172 165.129  13
   2   6  13 1433.03 192.781  12
  -2   6 -14 3979.99 479.253  23
   2   6  14 4260.82 445.381   4
  -2  -6  14 4950.34 332.431  19
  -2  -6  14 4794.96 471.544   2
   2   6  14 3729.82 270.276  15
   2   6  14 4110.26 309.627  13
   2   6  14 3769.13 303.556  12
   2   6  14 4751.10 296.402   6
   2   6  15 20821.3 749.758   6
  -2  -6  15 20715.1 791.861  19
   2   6  15 21099.5 1049.32   4
  -2  -6  15 18734.3 988.616   2
   2   6  15 20098.1 743.757  15
   2   6  15 19614.4 778.166  12
   2   6  16 13030.7 807.127   4
   2   6  16 13217.8 558.281  15
  -2  -6  16 13426.8 594.651  19
   2   6  16 14021.5 559.435   6
   2   6  16 13286.3 567.216  10
   2   6  16 13805.9 594.015  12
   2   6  17 9132.64 419.818   6
   2   6  17 9699.25 460.170   8
   2   6  17 8598.79 423.265  15
   2   6  17 9106.43 426.221  10
   2   6  17 8860.93 441.561  12
  -2  -6  17 9823.49 472.660  19
   2   6  18 5714.31 320.874  12
   2   6  18 5327.62 323.557   8
   2   6  18 5085.39 286.589  10
   2   6  18 6025.82 324.418  15
  -2  -6  18 5515.89 334.641  19
  -2  -6  19 14784.8 580.402  19
   2   6  19 13898.4 542.356  15
   2   6  19 14887.7 568.899   8
   2   6  19 14338.1 536.051  12
   2   6  20 6715.99 324.126   8
  -2  -6  20 6351.64 329.795  19
   2   6  20 6657.07 311.659  15
  -2  -6  21 7660.28 341.871  19
   2   6  21 8732.07 336.733  15
   2   6  21 8232.69 340.950   8
  -2  -6  22 4289.58 205.980  19
   2   6  22 3626.84 180.820  15
   2  -7  21 1508.25 126.116   8
   2  -7  21 1505.71 120.359  19
   2  -7  20 3859.41 217.810  19
   2  -7  20 3805.45 228.671   8
   2  -7  19 320.265 95.4829  19
   2  -7  19 458.901 109.173   8
   2  -7  18 703.291 130.117  19
   2  -7  18 630.611 135.042   8
   2  -7  17 52.5068 101.779  19
   2  -7  17 29.5982 105.121   8
  -2   7  17 88.8778 94.8659  10
  -2   7  16 14860.0 613.662  10
   2  -7  16 14980.3 611.341  19
   2  -7  16 14651.2 636.482   8
   2  -7  15 2696.83 245.106  19
  -2   7  15 2596.27 249.027  10
  -2   7  14 3824.54 256.575  17
  -2  -7 -14 3321.84 420.545  21
  -2   7  14 3668.21 292.651  10
   2  -7  14 3774.78 284.407  19
  -2   7  14 3169.30 396.021   4
   2   7 -14 3270.55 412.386  23
  -2   7  13 996.453 180.596  10
  -2  -7 -13 844.045 244.070  21
   2  -7  13 1039.16 171.860  19
   2  -7  13 1023.92 265.578   1
   2   7 -13 1112.81 264.873  23
  -2   7  13 1100.20 242.385   4
   2  -7  12 9763.36 488.926   7
  -2   7  12 10904.6 535.330  10
   2  -7  12 10490.9 497.109  19
  -2   7  12 9560.84 673.752   4
   2  -7  12 9597.31 718.797   1
  -2  -7 -12 11410.0 760.922  21
   2   7 -12 9875.28 714.843  23
  -2   7  11 6927.63 408.054  10
   2  -7  11 6055.24 366.440  19
   2  -7  11 6804.69 384.969   7
  -2  -7 -11 6184.30 550.531  21
  -2   7  11 6255.51 530.800   4
   2  -7  11 6660.98 578.604   1
   2   7 -11 6223.68 559.700  23
   2  -7  11 5683.49 361.658  14
  -2  -7 -10 22424.2 1084.49  21
   2  -7  10 21388.3 950.854   2
   2  -7  10 22255.2 807.156  19
  -2   7  10 20196.5 1027.76   4
   2  -7  10 21959.3 821.808  14
   2  -7  10 21544.0 1098.24   1
   2   7 -10 21937.5 1100.24  23
  -2  -7  -9 9762.26 656.179  21
   2  -7   9 9679.35 466.361  19
   2  -7   9 8479.65 633.503   1
   2   7  -9 10688.7 717.604  23
   2  -7   9 9425.01 478.757  14
   2  -7   9 9232.16 579.996   2
  -2   7   9 10310.2 681.457   4
   2   7  -8 69085.9 2362.94  23
  -2  -7  -8 69105.5 2271.07  21
  -2   7   8 67157.2 2270.63   4
   2  -7   8 68136.3 1964.20   7
   2  -7   8 67496.5 1996.67  14
   2  -7   8 72394.3 2348.04   1
  -2   7   8 67090.6 1998.56  10
   2  -7   8 68524.6 2191.01   2
  -2   7   7 1206.91 172.700  10
  -2  -7  -7 1241.34 229.494  21
  -2  -7  -7 1247.36 149.390  18
   2  -7   7 1034.38 231.330   1
  -2   7   7 1040.48 221.439   4
   2  -7   7 1275.56 172.662   7
   2  -7   7 1027.37 169.925  14
   2  -7   7 1051.75 202.132   2
   2   7  -7 1043.21 243.293  23
  -2  -7  -6 3666.88 351.701  21
  -2   7   6 3269.04 256.131  10
  -2  -7  -6 2629.53 280.148   2
   2   7  -6 3353.40 382.456  23
  -2  -7  -6 2876.46 226.167  18
   2  -7   6 2639.67 369.460  20
  -2   7   6 3194.38 355.066   4
   2  -7   6 3458.37 249.007   7
   2  -7   6 3098.77 259.833  14
   2  -7   6 3594.59 372.995   1
  -2  -7  -5 2995.08 304.088   2
  -2   7   5 3306.27 348.664   4
   2  -7   5 3765.01 255.105   7
   2  -7   5 3338.58 351.165   1
  -2  -7  -5 3148.94 314.537  21
  -2   7   5 3150.78 253.277  10
   2   7  -5 3171.41 374.172  23
  -2   7   4 7962.76 404.362  10
  -2  -7  -4 8046.79 507.234   2
  -2   7   4 7194.49 561.156  22
   2  -7   4 8020.31 385.678   7
   2  -7   4 7544.05 512.576   1
   2  -7   4 7311.57 407.383  14
   2   7  -4 8411.80 604.681  23
  -2  -7  -4 8118.21 477.395  21
  -2   7   3 1273.87 166.628  10
  -2  -7  -3 1567.15 191.075  21
  -2   7   3 1678.58 281.777  22
   2   7  -3 1432.26 271.951  23
   2  -7   3 1106.82 148.090   7
   2  -7   3 1344.44 176.539  14
   2  -7   3 1391.77 219.269   1
  -2  -7  -3 1621.81 233.592   2
  -2   7   2 7756.69 575.525  22
  -2   7   2 8903.56 416.113  10
  -2  -7  -2 8734.45 545.492   2
  -2  -7  -2 7858.19 499.936   3
   2  -7   2 8564.49 386.368   7
   2  -7   2 8490.50 426.015  14
   2  -7   2 8519.31 586.706  20
  -2   7   2 7147.38 427.369  23
   2  -7   2 8136.97 497.644   1
   2   7  -2 8404.94 594.693  23
  -2   7   1 14414.2 571.992  10
  -2  -7  -1 14399.7 745.159   2
   2  -7   1 14871.6 799.236  20
  -2   7   1 13283.2 781.609  22
   2  -7   1 15465.5 560.519   7
  -2  -7  -1 14507.6 706.044   3
   2  -7   1 14596.9 601.236  14
  -2   7   1 14340.6 652.100  23
   2  -7   1 15098.0 691.533   1
   2  -7   0 9700.51 512.186   1
  -2   7   0 9472.50 427.667  10
  -2  -7   0 9981.09 605.474   2
  -2   7   0 9023.54 508.560  23
   2   7   0 9699.28 428.659   9
   2  -7   0 10434.3 470.293  14
  -2  -7   0 11107.2 586.241   3
  -2   7   0 9155.22 620.914  22
   2  -7   0 9848.43 623.975  20
  -2   7  -1 14183.9 556.602  10
  -2  -7   1 14217.0 761.250   2
   2  -7  -1 15279.3 602.381  14
  -2  -7   1 14319.8 701.248   3
   2  -7  -1 17209.4 844.199  20
  -2   7  -1 15270.3 822.756  22
   2   7   1 14370.2 551.867  12
   2   7   1 14972.9 576.392   9
  -2   7  -1 15655.3 704.360  23
   2  -7  -2 8015.59 561.012  20
   2   7   2 8276.34 397.824   9
  -2  -7   2 9193.64 585.197   2
  -2   7  -2 7794.78 571.789  22
  -2  -7   2 7545.81 485.355   3
  -2   7  -2 9161.90 522.311  23
   2  -7  -2 8175.33 403.237  14
   2   7   2 8308.80 387.011  12
   2   7   3 1277.31 264.506  23
  -2  -7   3 1057.49 188.835   3
   2  -7  -3 1209.65 232.677  20
  -2   7  -3 1625.76 285.649  22
   2   7   3 1285.42 157.974   9
   2  -7  -3 1328.55 160.842  14
   2   7   3 1277.82 162.742  13
  -2  -7   3 1173.85 237.370   2
   2   7   3 1034.22 143.533  12
  -2   7  -3 1585.46 227.258  23
   2   7   3 1069.03 139.282   6
   2  -7  -4 7945.34 561.870  20
   2   7   4 7894.66 589.158  23
  -2   7  -4 7367.66 564.741  22
  -2  -7   4 8352.65 506.635   3
   2  -7  -4 7845.05 381.183  14
   2   7   4 7462.97 387.799  13
   2   7   4 7681.80 379.742   6
  -2  -7   4 7600.42 552.653   2
   2   7   4 8109.25 397.329   9
   2   7   4 7811.78 388.312  12
  -2   7  -4 7729.85 512.340  23
   2  -7  -5 3334.60 364.526  20
  -2  -7   5 3405.40 370.854   2
   2   7   5 3135.10 244.337   9
  -2   7  -5 3514.85 385.722  22
   2  -7  -5 2725.18 216.790  14
   2   7   5 2904.27 369.190  23
   2   7   5 3348.35 252.006  13
   2   7   5 3683.71 245.438   6
  -2  -7   5 3296.71 324.618   3
   2   7   5 2908.80 236.256  12
  -2   7  -5 3122.83 332.776  23
  -2   7  -6 3316.62 402.552  22
   2   7   6 3143.37 243.073   8
   2  -7  -6 3250.14 364.254  20
  -2  -7   6 3261.43 374.503   2
  -2  -7   6 3088.85 250.714  18
   2   7   6 3148.26 350.714   4
   2   7   6 2724.42 237.931  13
   2   7   6 3563.63 245.454   6
   2   7   6 3221.90 253.798  12
  -2  -7   6 3214.92 330.250   3
   2   7   6 2882.46 373.999  23
  -2   7  -6 3110.38 344.480  23
   2   7   7 1294.45 175.713  12
  -2  -7   7 1236.32 216.066   3
   2  -7  -7 1319.39 250.091  20
  -2  -7   7 1268.82 171.004  18
   2   7   7 1328.48 171.218   8
   2   7   7 901.280 238.126  23
   2   7   7 883.626 211.541   4
   2   7   7 1310.75 181.745  13
   2   7   7 1265.52 162.282   6
  -2   7  -7 1332.12 254.661  23
  -2   7  -8 62807.4 2230.10  23
   2  -7  -8 69327.5 2250.68  20
   2   7   8 67266.3 1926.64   8
  -2  -7   8 66472.2 1932.01  18
   2   7   8 68463.1 2342.54  23
   2   7   8 65688.5 2236.70   4
   2   7   8 66680.7 1953.43  13
   2   7   8 69552.6 1915.69   6
   2   7   8 64918.8 1942.67  12
   2   7   8 66237.6 1931.24   9
   2   7   9 9613.68 463.238   8
  -2  -7   9 9884.82 469.550  19
  -2  -7   9 10597.6 707.474   2
  -2  -7   9 9990.20 465.036  18
   2   7   9 9132.45 638.542   4
   2  -7  -9 9984.46 639.913  20
   2   7   9 8628.93 467.332  13
   2   7   9 8230.85 423.745   6
   2   7   9 8792.62 466.251  12
  -2   7  -9 8786.85 631.791  23
   2   7   9 9480.60 461.766   9
  -2  -7  10 22676.4 804.821  18
  -2  -7  10 21127.8 809.201  19
   2  -7 -10 22055.6 1029.71  20
   2   7  10 23056.6 826.428   8
  -2  -7  10 20643.1 1089.19   2
   2   7  10 22301.4 1071.10   4
   2   7  10 21646.9 837.431  12
   2   7  10 23117.1 800.130   6
  -2   7 -10 20913.8 1069.58  23
  -2  -7  11 5788.33 541.898   2
  -2   7 -11 5982.97 541.595  23
   2  -7 -11 5909.45 497.337  20
   2   7  11 6583.87 382.530   8
  -2  -7  11 6754.72 390.354  19
  -2  -7  11 6017.89 348.175  18
   2   7  11 6782.21 552.636   4
   2   7  11 6526.35 358.550   6
   2   7  12 12043.1 498.106   6
   2   7  12 10024.4 688.456   4
   2   7  12 10865.4 513.014   8
  -2  -7  12 9247.19 444.558  18
  -2  -7  12 10229.8 724.782   2
  -2  -7  12 9797.21 493.438  19
  -2   7 -12 10460.3 736.430  23
  -2  -7  13 1014.21 173.091  19
  -2  -7  13 985.095 133.932  18
   2   7  13 1025.77 238.707   4
   2   7  13 948.291 171.789  12
   2   7  13 1437.54 171.158   6
  -2  -7  13 788.247 224.686   2
  -2   7 -13 467.679 211.183  23
   2   7  14 3752.69 256.473   6
  -2  -7  14 3527.87 277.704  19
  -2  -7  14 3135.40 389.293   2
   2   7  14 2666.01 361.552   4
   2   7  14 3740.45 293.674  12
  -2   7 -14 2271.88 356.069  23
   2   7  15 2418.26 230.736  10
  -2  -7  15 2451.80 234.282  19
   2   7  15 2208.21 188.192  15
   2   7  15 2577.07 245.697  12
   2   7  15 2145.23 196.711   6
   2   7  16 14154.4 585.481  10
  -2  -7  16 14891.9 608.948  19
   2   7  16 13449.9 527.861  15
   2   7  16 14493.4 548.032   6
   2   7  16 14412.1 604.497  12
   2   7  17 83.8571 83.2840  10
  -2  -7  17 201.559 105.125  19
   2   7  17 12.6617 96.4195   8
   2   7  17 76.2811 78.4386  15
   2   7  17 108.277 72.1429   6
   2   7  17 65.3599 93.8521  12
   2   7  18 595.851 106.562  10
   2   7  18 666.199 137.500   8
   2   7  18 804.215 109.064  15
  -2  -7  18 842.061 142.587  19
   2   7  18 643.367 123.898  12
  -2  -7  19 381.122 104.316  19
   2   7  19 247.352 70.5551  15
   2   7  19 419.176 93.0466  12
  -2  -7  20 3585.96 210.705  19
  -2  -7  21 1498.67 120.135  19
   2  -8  20 3162.07 166.517  19
   2  -8  20 3831.66 188.359   8
   2  -8  19 3552.86 204.806  19
   2  -8  19 3949.69 223.125   8
   2  -8  18 17660.4 640.400   8
   2  -8  18 18488.5 624.195  19
   2  -8  17 6796.77 333.868  19
   2  -8  17 6165.09 343.533   8
  -2   8  16 327.309 114.890  10
   2  -8  16 295.608 130.149   8
   2  -8  15 1076.74 154.336  19
  -2   8  15 1060.24 169.148  10
  -2   8  14 11237.0 534.687  10
  -2   8  14 10674.1 462.110  17
   2  -8  14 11290.0 505.942  19
  -2   8  13 13361.9 601.215  10
   2  -8  13 12598.0 556.579  19
   2  -8  13 11705.7 801.479   1
  -2   8  13 12206.5 531.827  17
  -2   8  12 6047.04 384.632  10
   2  -8  12 5454.80 537.520   1
   2  -8  12 6008.95 355.028  19
  -2   8  12 6217.27 538.831   4
   2   8 -12 5466.84 550.553  23
   2  -8  11 9055.46 462.068  19
   2  -8  11 9093.47 688.099   1
  -2  -8 -11 9383.02 657.242  21
   2   8 -11 9288.38 711.913  23
  -2   8  11 9333.64 666.608   4
  -2  -8 -10 1013.68 230.677  21
   2  -8  10 1010.81 165.700  19
  -2   8  10 858.084 229.469   4
   2  -8  10 803.139 165.113  14
   2  -8  10 725.678 228.445   1
   2  -8  10 966.157 209.412   2
   2   8 -10 1331.54 284.433  23
  -2   8   9 4213.85 321.445  10
  -2  -8  -9 3373.74 388.390  21
   2  -8   9 3102.83 348.301   2
   2  -8   9 3784.40 284.243  19
  -2   8   9 3153.81 386.550   4
   2  -8   9 3717.98 434.642   1
   2   8  -9 3944.52 457.834  23
   2  -8   9 3669.49 303.064  14
   2  -8   8 14103.9 785.260   2
  -2   8   8 14723.8 856.816   4
  -2  -8  -8 14611.0 798.321  21
   2  -8   8 15653.3 885.758   1
  -2   8   8 15029.2 659.784  10
   2  -8   8 15118.2 662.945  14
   2   8  -8 14843.1 904.026  23
  -2   8   7 53501.7 1652.91  10
  -2  -8  -7 51951.7 1812.04  21
   2  -8   7 54948.9 1952.11   1
   2   8  -7 50833.2 1999.63  23
  -2   8   7 53424.8 1932.70   4
   2  -8   7 57037.5 1682.03  14
  -2  -8  -7 51560.8 1556.65  18
   2  -8   7 54807.0 1892.06   2
   2  -8   6 8016.84 594.203   1
  -2  -8  -6 8458.89 418.656  18
   2  -8   6 8720.68 593.935   2
  -2   8   6 8187.63 609.068   4
  -2   8   6 8750.55 465.786  10
   2  -8   6 9822.81 500.970  14
   2   8  -6 7861.53 633.844  23
  -2   8   5 3637.26 280.882  10
  -2  -8  -5 2689.71 311.036   2
   2  -8   5 3095.22 355.882   1
  -2  -8  -5 3038.65 249.405  18
  -2   8   5 3064.76 365.934   4
  -2   8   5 3049.70 401.952  22
   2   8  -5 2830.17 387.462  23
   2  -8   4 9057.48 600.168   1
  -2  -8  -4 9197.72 585.941   2
  -2   8   4 9246.93 681.394  22
  -2  -8  -4 8870.59 446.841  18
  -2  -8  -4 8554.98 553.709   3
   2  -8   4 10282.3 506.801  14
  -2   8   4 9103.86 463.552  10
   2   8  -4 9175.67 671.759  23
  -2   8   3 562.961 131.234  10
   2  -8   3 916.378 205.827   1
  -2  -8  -3 733.750 148.287  18
  -2   8   3 790.154 227.873  22
   2  -8   3 547.727 204.362  20
   2   8  -3 488.420 183.283  23
   2  -8   3 586.718 147.228  14
  -2  -8  -3 916.063 199.607   2
  -2  -8  -3 633.787 164.816   3
  -2  -8  -2 16427.9 840.776   2
  -2   8   2 16405.4 654.986  10
  -2   8   2 16430.1 917.370  22
   2  -8   2 16154.3 916.298  20
   2  -8   2 15682.0 784.391   1
  -2  -8  -2 16469.7 664.936  18
   2  -8   2 16646.0 686.484  14
  -2  -8  -2 16378.7 786.475   3
   2  -8   1 6685.67 559.671  20
  -2   8   1 7402.27 390.342  10
  -2  -8  -1 7798.74 416.289  18
  -2   8   1 7223.45 467.045  23
   2  -8   1 7238.73 414.249  14
  -2  -8  -1 6679.92 465.028   3
  -2  -8  -1 7379.25 547.878   2
  -2   8   1 7379.18 591.160  22
  -2   8   0 1772.06 184.516  10
  -2  -8   0 2005.52 218.495  18
  -2   8   0 1707.09 231.938  23
   2  -8   0 2195.35 221.818  14
  -2  -8   0 2071.08 255.617   3
   2  -8   0 1491.22 277.400  20
  -2  -8   0 1766.21 284.763   2
  -2   8   0 1807.23 300.702  22
  -2   8  -1 8322.91 623.496  22
  -2  -8   1 7514.63 568.456   2
   2  -8  -1 8127.30 601.790  20
  -2   8  -1 6608.14 473.293  23
  -2  -8   1 7222.05 413.744  18
  -2   8  -1 7176.68 369.526  10
   2  -8  -1 7631.73 414.696  14
  -2  -8   1 7979.17 501.372   3
   2   8   1 8001.14 383.341  12
   2   8   1 7248.41 593.010  23
  -2  -8   2 16436.1 674.693  18
   2  -8  -2 16883.7 899.605  20
   2   8   2 16561.3 923.774  23
  -2  -8   2 14366.0 837.001   2
   2  -8  -2 16004.9 652.675  14
   2   8   2 16096.6 627.687   6
  -2  -8   2 16869.8 771.815   3
   2   8   2 15230.8 610.599  12
  -2   8  -2 14776.0 761.680  23
  -2   8  -2 15445.3 887.488  22
   2   8   3 659.753 127.611   6
  -2   8  -3 897.301 232.677  22
   2  -8  -3 648.333 209.653  20
   2   8   3 603.283 203.502  23
  -2  -8   3 706.409 169.643   3
   2  -8  -3 620.622 140.234  14
  -2  -8   3 311.177 156.819   2
   2   8   3 550.986 129.937  12
  -2   8  -3 564.251 176.660  23
   2  -8  -4 10620.3 689.713  20
  -2  -8   4 9436.63 668.248   2
  -2   8  -4 8528.76 648.475  22
   2   8   4 9728.28 698.135  23
   2  -8  -4 8891.64 442.687  14
   2   8   4 10347.0 458.810   6
   2   8   4 8984.01 449.190  12
  -2  -8   4 8437.61 539.087   3
  -2   8  -4 9502.05 605.125  23
   2   8   5 3364.80 376.718   4
   2  -8  -5 3180.32 381.668  20
  -2  -8   5 3113.57 267.918  18
  -2  -8   5 2675.80 369.917   2
   2  -8  -5 2883.44 235.530  14
   2   8   5 3809.26 258.409   6
   2   8   5 3067.88 255.703  12
  -2  -8   5 2768.09 301.337   3
  -2   8  -5 2895.83 337.203  23
   2   8   5 2654.80 379.266  23
  -2   8  -5 2928.48 382.828  22
  -2   8  -6 9516.30 629.038  23
  -2  -8   6 9236.67 473.331  18
   2   8   6 9168.34 680.941  23
  -2  -8   6 7885.55 520.331   3
   2   8   6 8853.61 631.568   4
   2   8   6 8744.27 424.138   6
  -2  -8   6 8052.40 633.510   2
   2   8   6 8865.83 454.551  12
   2  -8  -6 8656.57 624.557  20
  -2   8  -6 8176.26 637.850  22
   2   8   7 56963.7 2071.47  23
  -2  -8   7 53946.6 1671.20  18
   2   8   7 55303.2 1976.97   4
   2   8   7 54722.2 1619.97   6
   2   8   7 54721.6 1667.01  12
  -2   8  -7 56891.3 1968.84  23
   2  -8  -7 51229.4 1934.29  20
  -2   8  -7 55551.8 2039.45  22
  -2   8  -8 15503.5 904.159  22
  -2   8  -8 16891.7 889.932  23
  -2  -8   8 15728.7 655.934  18
   2   8   8 14484.1 850.155   4
   2  -8  -8 15818.0 857.429  20
   2   8   8 15067.3 611.105   6
   2   8   8 14411.8 646.314  12
   2   8   8 15443.6 910.551  23
  -2   8  -9 3368.56 415.054  22
   2  -8  -9 3074.60 370.184  20
  -2  -8   9 4274.35 300.496  19
  -2  -8   9 3543.27 439.523   2
  -2  -8   9 3815.92 289.270  18
   2   8   9 3024.83 387.070   4
   2   8   9 3780.06 263.008   6
   2   8   9 3728.23 302.397  12
  -2   8  -9 2909.50 379.771  23
   2   8  10 1033.18 153.456   6
   2  -8 -10 909.772 211.990  20
  -2  -8  10 1120.45 173.047  19
  -2  -8  10 936.882 158.185  18
   2   8  10 638.873 199.462   4
  -2   8 -10 1203.38 273.770  22
   2   8  10 1094.43 187.349  12
  -2  -8  10 878.096 245.805   2
  -2   8 -10 1024.07 249.619  23
  -2   8 -11 9739.98 697.194  22
  -2  -8  11 9598.20 481.571  19
  -2  -8  11 10109.2 467.083  18
  -2  -8  11 9184.80 698.977   2
   2   8  11 8946.24 653.357   4
   2   8  11 10230.0 516.558  12
   2   8  11 9489.97 443.524   6
  -2   8 -11 9921.94 700.565  23
  -2   8 -12 5044.05 492.328  22
  -2  -8  12 5512.01 346.731  19
  -2  -8  12 5538.46 319.695  18
   2   8  12 5610.15 508.170   4
  -2  -8  12 5772.84 539.914   2
  -2   8 -12 6166.90 549.431  23
  -2  -8  12 5140.24 307.236  14
   2   8  12 5727.13 320.142   6
   2   8  13 12991.7 515.538   6
  -2  -8  13 12605.4 561.405  19
  -2  -8  14 11098.5 515.543  19
   2   8  14 11321.5 530.534  10
   2   8  14 11550.6 540.883  12
   2   8  14 11542.6 467.613   6
   2   8  15 981.348 160.809  10
  -2  -8  15 837.823 142.788  19
   2   8  15 1090.57 165.302  12
   2   8  16 443.561 123.179  12
   2   8  16 508.319 119.236  10
  -2  -8  16 778.337 128.190  19
   2   8  17 7208.87 343.961  10
   2   8  17 7632.71 359.516  12
  -2  -8  18 18494.3 639.496  19
   2   8  18 19128.3 618.486  10
   2   8  18 18405.1 631.120  12
  -2  -8  19 3624.14 204.782  19
  -2  -8  20 3766.25 183.833  19
   2  -9  19 4124.37 186.061   8
   2  -9  18 973.332 97.8818  19
   2  -9  18 940.818 109.654   8
   2  -9  17 1521.81 138.480  19
   2  -9  17 1494.32 150.992   8
   2  -9  16 3689.45 248.896   8
   2  -9  16 3869.82 233.831  19
   2  -9  15 1207.90 142.479  19
  -2   9  15 1039.23 147.616  10
  -2   9  14 8483.75 435.312  10
   2  -9  14 8933.35 414.768  19
   2  -9  13 13257.3 547.447  19
  -2   9  13 12920.2 528.810  17
   2  -9  12 783.060 145.405  19
  -2   9  11 3858.56 309.413  10
   2  -9  11 3626.64 272.878  19
  -2   9  10 7578.15 441.950  10
   2  -9  10 8223.33 425.348  19
  -2   9  10 6943.15 576.487   4
   2  -9  10 7618.36 433.275  14
   2   9 -10 7842.83 650.423  23
  -2   9   9 3217.24 287.257  10
   2  -9   9 3730.64 387.175   2
   2  -9   9 3913.57 286.738  19
  -2   9   9 3000.71 394.099   4
   2  -9   9 3706.15 296.426  14
   2   9  -9 3257.73 427.324  23
  -2   9   8 13276.0 616.792  10
   2  -9   8 12327.0 752.752   2
   2  -9   8 14144.9 596.124  19
  -2   9   8 12608.7 802.368   4
   2  -9   8 13741.3 628.031  14
   2   9  -8 14018.4 894.728  23
  -2  -9  -7 541.692 118.191  18
   2   9  -7 670.010 221.603  23
  -2   9   7 250.864 153.645   4
   2  -9   7 584.946 164.530  14
   2  -9   7 592.807 193.456   2
  -2   9   7 701.154 163.967  10
  -2   9   6 22467.9 856.805  10
   2  -9   6 23362.9 1079.73   2
  -2   9   6 22003.6 1090.99   4
  -2  -9  -6 21016.1 782.837  18
   2   9  -6 22311.4 1168.96  23
  -2   9   5 9475.95 499.873  10
  -2  -9  -5 10034.7 481.162  18
  -2   9   5 10224.6 705.467   4
   2  -9   5 11015.2 701.811   2
   2   9  -5 9914.30 743.146  23
  -2   9   4 4270.28 319.035  10
   2  -9   4 3917.31 429.535   2
  -2  -9  -4 4660.68 429.161   2
  -2  -9  -4 4631.91 315.837  18
  -2   9   4 4410.38 460.151   4
   2  -9   4 5052.46 366.541  14
  -2   9   3 12546.5 842.663  22
  -2   9   3 13442.9 593.813  10
  -2  -9  -3 13843.0 783.128   2
   2  -9   3 13269.6 878.962  20
  -2  -9  -3 13013.5 590.077  18
   2  -9   3 14383.0 651.480  14
   2  -9   2-40.3292 150.711  20
  -2   9   2 410.579 225.125  22
   2  -9   2 218.668 126.719  14
  -2  -9  -2 264.321 153.145   2
  -2  -9  -2 81.9748 122.563  18
  -2   9   2 273.809 125.165  10
  -2  -9  -1 14848.1 651.085  18
   2   9  -1 15080.2 933.739  23
   2  -9   1 13874.2 894.929  20
   2  -9   1 14320.6 656.185  14
  -2   9   1 14815.4 613.172  10
  -2   9   1 14205.6 893.467  22
  -2   9   0 2683.53 226.740  10
  -2   9   0 2688.50 383.101  22
  -2  -9   0 2551.00 248.048  18
   2  -9   0 2275.91 244.759  14
   2  -9   0 1964.99 345.492  20
  -2  -9   0 2548.83 352.676   2
   2   9   0 1546.36 305.472  23
  -2   9  -1 14384.9 889.583  22
   2  -9  -1 16327.6 937.756  20
  -2  -9   1 16384.4 915.464   2
  -2  -9   1 13480.8 639.920  18
   2  -9  -1 16987.7 684.748  14
   2   9   1 14765.3 613.017   6
   2   9   1 15040.0 594.248  12
   2   9   1 14291.4 909.932  23
   2  -9  -2 380.682 185.032  20
  -2  -9   2 175.489 116.488  18
   2  -9  -2 131.692 123.050  14
  -2  -9   2 112.159 139.714   2
   2   9   2 182.954 100.043   6
   2   9   2 175.252 96.8509  12
  -2   9  -2 118.019 157.903  22
  -2   9  -2 166.163 111.198  23
   2   9   2 165.250 165.817  23
   2  -9  -3 13013.9 828.995  20
  -2  -9   3 14640.4 874.837   2
   2   9   3 12929.1 851.499  23
  -2   9  -3 15365.0 895.380  22
   2  -9  -3 13073.7 587.164  14
   2   9   3 14632.4 581.886   6
  -2  -9   3 12828.2 613.758  18
   2   9   3 12761.6 561.960  12
  -2   9  -3 12050.9 727.324  23
  -2   9  -4 3984.16 463.877  22
   2  -9  -4 4678.22 486.950  20
  -2  -9   4 5525.14 525.857   2
   2  -9  -4 4826.90 316.454  14
  -2   9  -4 5474.95 471.545  23
   2   9   4 4263.15 449.475   4
   2   9   4 4779.86 304.922   6
   2   9   4 4383.31 306.126  12
   2   9   4 3984.25 468.261  23
  -2   9  -5 11602.6 754.372  22
   2  -9  -5 9190.78 681.874  20
  -2  -9   5 10097.6 731.501   2
   2   9   5 8926.82 660.411   4
   2  -9  -5 9797.02 462.595  14
   2   9   5 9030.45 705.174  23
  -2  -9   5 9890.37 515.125  18
   2   9   5 10255.7 465.482   6
   2   9   5 8831.24 468.908  12
  -2   9  -5 9772.71 650.525  23
   2  -9  -6 21852.4 785.721  14
  -2   9  -6 25445.8 1179.85  22
   2  -9  -6 21463.4 1081.93  20
  -2  -9   6 21646.8 1146.49   2
  -2  -9   6 24533.2 891.800  18
   2   9   6 21817.7 1090.48   4
   2   9   6 22108.6 798.420   6
   2   9   6 24162.1 1192.21  23
   2   9   6 22309.8 844.687  12
  -2   9  -6 21270.1 1053.61  23
   2   9   7 603.613 202.100   4
   2  -9  -7 687.083 211.152  20
  -2   9  -7 411.467 209.289  22
  -2  -9   7 763.573 165.664  18
   2   9   7 628.929 125.000   6
   2   9   7 654.286 160.648  12
  -2   9  -7 739.997 203.807  23
   2   9   7 642.826 220.816  23
  -2   9  -8 12433.8 795.741  22
  -2  -9   8 12873.5 574.626  19
  -2  -9   8 13200.4 592.930  18
   2  -9  -8 11676.0 740.382  20
  -2   9  -8 12521.0 776.342  23
   2   9   8 13879.2 552.130   6
   2   9   8 12581.1 584.113  12
   2   9   8 11316.4 756.952   4
  -2   9  -9 4352.27 452.216  22
  -2  -9   9 3640.63 281.048  19
  -2  -9   9 3231.33 431.190   2
  -2  -9   9 3444.15 274.191  18
   2   9   9 3003.23 391.613   4
   2   9   9 3401.48 292.903  12
   2   9   9 3730.42 256.055   6
  -2   9  -9 3070.17 380.116  23
  -2  -9  10 7083.69 405.549  19
  -2  -9  10 8849.62 677.545   2
  -2  -9  10 8404.67 421.038  18
  -2   9 -10 7774.89 616.848  23
   2   9  10 7867.05 440.927  12
   2   9  10 7882.26 378.833   6
   2   9  10 7849.73 604.811   4
  -2  -9  11 3680.40 275.760  19
  -2  -9  11 3562.33 262.160  18
  -2  -9  11 3905.18 271.507  14
   2   9  11 3990.31 304.153  12
   2   9  11 3665.17 242.015   6
   2   9  12 796.797 165.661  12
   2   9  12 1199.48 134.091   6
  -2  -9  12 1218.13 170.088  19
  -2  -9  12 1117.56 139.983  14
  -2  -9  13 12685.7 541.170  19
   2   9  13 12433.1 559.235  10
   2   9  14 9533.05 451.001  10
  -2  -9  14 9091.33 427.628  19
   2   9  15 1130.67 155.357  10
  -2  -9  15 1222.13 149.820  19
   2   9  15 963.653 142.708  12
  -2  -9  16 3946.17 240.530  19
   2   9  16 4249.56 248.512  10
   2   9  16 4120.05 251.363  12
   2   9  17 1562.97 140.500  10
  -2  -9  17 1425.14 138.035  19
   2   9  18 889.717 92.2453  10
  -2  -9  18 902.772 99.2155  19
   2 -10  17 338.175 67.7314   8
   2 -10  16 3337.82 194.160   8
   2 -10  16 2904.67 167.448  19
   2 -10  15 5317.66 278.248   8
   2 -10  15 5316.00 255.959  19
   2 -10  14 2812.94 189.346  19
  -2  10  13 3585.72 221.133  17
   2 -10  13 3423.72 230.929  19
  -2  10  12 2003.48 199.959  10
   2 -10  12 2075.54 186.686  19
  -2  10  12 1929.85 183.689  17
   2 -10  11 86.3763 96.5815  19
  -2  10  11 235.439 118.140  10
  -2  10  10 3883.26 287.134  10
   2 -10  10 3474.62 252.588  19
   2 -10   9 5581.13 334.321  19
  -2  10   9 5647.55 363.780  10
  -2  10   8 6978.99 409.054  10
   2 -10   8 7411.61 395.156  19
   2 -10   8 7970.27 442.855  14
  -2  10   7 4700.31 329.265  10
  -2 -10  -7 4571.78 276.565  18
   2 -10   7 4266.05 332.033  14
   2 -10   7 4868.55 313.699  19
  -2  10   6 7205.05 413.670  10
  -2 -10  -6 6619.39 355.213  18
  -2  10   6 6394.09 548.832   4
   2 -10   5 45939.1 1763.71   2
  -2 -10  -5 47043.1 1429.50  18
  -2  10   5 46267.4 1787.11   4
   2 -10   5 46850.9 1525.08  14
  -2  10   5 47850.9 1479.21  10
  -2 -10  -4 4661.77 313.192  18
  -2  10   4 4091.62 449.141   4
   2 -10   4 4483.81 350.742  14
   2 -10   4 4301.64 453.640   2
  -2  10   4 4818.48 331.286  10
   2 -10   3 7655.02 605.310   2
  -2  10   3 7942.55 424.458  10
  -2 -10  -3 8139.98 436.852  18
   2  10  -3 8754.96 695.685  23
  -2  10   3 6797.16 579.012   4
   2 -10   3 8061.48 468.460  14
  -2 -10  -3 7461.35 568.731   2
   2 -10   2 7350.78 609.057   2
  -2 -10  -2 6993.90 573.136   2
   2  10  -2 8300.58 691.044  23
  -2 -10  -2 8705.74 455.264  18
   2 -10   2 8490.39 476.218  14
  -2  10   2 8560.95 434.571  10
  -2  10   1 8944.64 435.285  10
  -2 -10  -1 8269.34 460.658  18
   2 -10   1 8482.15 695.320  20
  -2 -10  -1 7990.62 626.939   2
   2 -10   1 9716.52 507.360  14
   2  10  -1 8633.59 436.810   6
   2  10  -1 8323.41 695.810  23
  -2  10   1 9278.41 708.688  22
  -2  10   0 24595.2 850.925  10
  -2  10   0 24764.6 1232.08  22
   2 -10   0 23968.2 1229.95  20
  -2 -10   0 24636.8 928.443  18
   2  10   0 23793.9 1231.42  23
   2  10   0 24920.3 839.614  10
   2 -10   0 24676.9 934.414  14
   2  10   0 25969.8 885.473   6
  -2 -10   0 25506.6 1193.20   2
   2 -10  -1 7688.34 643.159  20
  -2 -10   1 8189.78 645.343   2
  -2  10  -1 8898.31 692.189  22
   2 -10  -1 7887.43 453.083  14
   2  10   1 8485.73 423.637   6
  -2 -10   1 8854.52 477.586  18
   2  10   1 8799.63 698.273  23
  -2 -10   2 8370.29 656.681   2
  -2  10  -2 6641.46 611.476  22
  -2 -10   2 9138.64 483.479  18
   2 -10  -2 8963.58 464.022  14
   2  10   2 8741.71 422.682   6
   2  10   2 7883.73 399.640  12
   2 -10  -2 7980.43 660.282  20
   2  10   2 7663.33 649.140  23
  -2  10  -3 7496.83 628.987  22
   2  10   3 7627.92 646.110  23
   2 -10  -3 6494.70 593.848  20
  -2 -10   3 7930.04 638.889   2
   2  10   3 8092.19 619.493   4
  -2 -10   3 8488.02 466.497  18
   2 -10  -3 8143.26 429.455  14
   2  10   3 7129.75 382.089   6
   2  10   3 7948.36 400.201  12
  -2  10  -4 4434.30 470.564  22
  -2 -10   4 3865.06 455.230   2
   2 -10  -4 3718.10 436.806  20
   2  10   4 3641.05 426.873   4
   2 -10  -4 4272.84 301.822  14
   2  10   4 4607.88 289.519   6
   2  10   4 4893.52 310.290  12
   2  10   4 4495.00 492.407  23
   2  10   5 45202.7 1808.54  23
   2 -10  -5 45549.8 1757.02  20
  -2  10  -5 45274.3 1771.77  22
  -2 -10   5 42703.5 1791.42   2
   2  10   5 48303.0 1784.58   4
   2 -10  -5 46005.3 1390.77  14
   2  10   5 45323.4 1372.61   6
   2  10   5 46723.5 1420.07  12
  -2 -10   6 6577.11 594.108   2
  -2 -10   6 7073.27 413.051  18
   2  10   6 6245.23 545.224   4
   2  10   6 6600.38 346.185   6
   2  10   6 7015.09 392.071  12
  -2 -10   7 4606.24 305.826  19
  -2 -10   7 4322.62 316.351  18
   2  10   7 4462.10 308.358  12
   2  10   7 4052.93 263.128   6
  -2 -10   8 6994.59 382.851  19
  -2 -10   8 7239.91 401.148  18
   2  10   8 6979.06 398.625  10
   2  10   8 6890.39 392.040  12
   2  10   8 6567.92 330.997   6
  -2 -10   9 5661.66 342.570  18
  -2 -10   9 5281.50 327.236  19
  -2 -10   9 5398.41 333.747  14
   2  10   9 4927.45 331.137  10
   2  10   9 5587.35 342.225  12
  -2 -10  10 3528.63 257.202  19
  -2 -10  10 3707.43 261.051  14
   2  10  10 3694.43 277.291  10
   2  10  10 3714.40 276.986  12
   2  10  11 294.573 118.140  10
  -2 -10  11 138.053 99.9641  19
  -2 -10  11 110.892 81.3492  14
   2  10  11 233.882 106.747  12
   2  10  12 2014.57 202.242  10
   2  10  12 2114.60 198.187  12
  -2 -10  12 2243.98 197.628  19
  -2 -10  13 3718.98 238.657  19
   2  10  13 3235.28 234.050  12
  -2 -10  14 3047.80 201.720  19
   2  10  14 3259.44 222.868  10
  -2 -10  15 5787.26 272.740  19
   2  10  15 5683.09 283.899  10
  -2 -10  16 3199.95 179.480  19
   2  10  16 3195.23 184.519  10
   2  10  17 383.396 59.9926  10
  -2 -10  17 386.036 59.0320  19
   2 -11  15 3752.66 178.839   8
   2 -11  14 1203.47 100.561  19
   2 -11  13 5360.50 244.544  19
  -2  11  12 1312.34 128.819  17
   2 -11  12 1034.92 121.425  19
   2 -11  11 839.478 118.617  19
   2 -11  11 1208.71 146.217   8
  -2  11  11 834.075 121.032  17
  -2  11  10 419.138 110.652  10
   2 -11  10 418.497 97.8174  19
  -2  11  10 282.091 106.894  17
  -2  11   9 7678.73 396.850  10
   2 -11   9 9193.55 395.584  19
  -2  11   8 1401.48 172.162  10
   2 -11   8 1345.24 157.082  19
  -2  11   7 1490.09 181.733  10
   2 -11   7 1441.90 170.560  19
  -2 -11  -7 1801.27 160.950  14
   2 -11   6 986.798 144.938  19
  -2  11   6 956.578 151.037  10
   2 -11   5 18228.5 725.970  14
   2  11  -5 17167.2 645.452   6
  -2  11   5 17040.8 665.292  10
  -2  11   4 5359.51 318.370  10
  -2 -11  -4 4944.94 302.676  18
   2 -11   4 5540.29 365.602  14
   2  11  -4 5097.43 300.518   6
  -2 -11  -3 795.818 142.262  18
   2  11  -3 525.380 117.699   6
   2 -11   3 602.721 147.970  14
   2  11  -2 583.963 117.889   6
  -2 -11  -2 594.582 135.255  18
   2 -11   2 768.721 164.052  14
   2  11  -1 276.831 93.4869   6
  -2 -11  -1 181.263 119.316  18
   2 -11   1 214.308 110.830  14
   2  11   0-11.8364 84.0683   6
   2 -11   0-32.1293 118.856  14
  -2 -11   0 77.7120 111.559  18
   2  11   1 196.729 81.4231   6
  -2 -11   1 237.167 117.057  18
   2  11   1 94.6630 75.6135  10
   2 -11  -1 262.798 126.176  14
   2  11   2 515.384 107.251   6
   2 -11  -2 468.537 125.825  14
  -2 -11   2 668.292 149.894  18
   2  11   2 616.104 116.610  10
   2  11   3 485.154 103.248   6
   2  11   3 471.729 107.176  10
  -2 -11   3 744.333 159.640  18
   2 -11  -3 653.729 135.268  14
   2  11   4 4402.44 281.398  10
  -2 -11   4 4831.37 331.257  18
   2  11   5 18569.7 682.750  10
  -2  11  -5 18007.8 639.863  17
   2  11   6 1470.32 171.090  10
  -2 -11   6 1080.96 149.039  19
  -2 -11   6 1146.35 168.016  18
  -2 -11   7 1677.17 183.722  19
   2  11   7 1896.53 192.838  10
  -2 -11   7 1586.52 191.018  14
   2  11   8 1201.33 156.974  10
  -2 -11   8 1136.87 152.815  19
  -2 -11   8 1481.79 174.301  14
   2  11   9 8864.61 418.022  10
  -2 -11   9 8978.93 403.556  19
  -2 -11   9 9016.56 408.451  14
   2  11  10 432.382 114.758  10
  -2 -11  10 489.647 111.823  19
  -2 -11  10 369.795 95.1401  14
   2  11  11 812.032 127.970  10
  -2 -11  11 788.477 116.170  19
   2  11  12 930.415 126.808  10
  -2 -11  12 1069.94 121.268  19
   2  11  13 5502.51 268.414  10
  -2 -11  13 5417.13 250.851  19
  -2 -11  14 1383.00 108.733  19
   2  11  15 4462.31 197.730  10
   2 -12  11 1668.19 132.658   8
   2 -12  11 1473.50 104.763  19
  -2  12  11 1556.78 112.915  17
   2 -12  10 7024.93 279.983  19
  -2  12  10 7371.72 300.167  17
   2 -12  10 7117.47 308.174   8
   2 -12   9 3367.64 189.975  19
  -2  12   9 3278.96 203.041  17
   2 -12   8 4976.89 245.269  19
  -2  12   8 4821.73 265.167  17
   2 -12   7 1221.40 131.681  19
   2 -12   6 659.967 111.118  19
  -2 -12  -6 619.272 92.0745  14
   2 -12   5 660.833 116.647  19
  -2 -12  -5 562.862 99.6523  14
   2 -12   4 2868.30 207.188  19
  -2 -12  -4 3068.89 211.061  14
  -2 -12  -3 110.205 91.3790  14
  -2 -12  -2 4445.07 277.207  14
  -2 -12  -1 2236.65 202.100  14
  -2 -12   0 89.0961 94.1947  14
  -2 -12   1 2452.30 219.697  14
  -2  12  -1 2551.23 205.543  17
  -2  12  -2 3930.46 247.374  17
  -2 -12   2 4976.91 298.640  14
  -2 -12   3 50.7527 95.7194  14
  -2  12  -3 36.8317 65.4311  17
   2  12   3 153.711 70.7998  10
  -2 -12   4 2965.65 211.704  19
   2  12   4 2837.60 189.839  10
  -2  12  -4 3100.88 188.979  17
   2  12   5 549.134 97.3231  10
  -2 -12   5 441.830 100.403  19
  -2 -12   6 575.885 110.267  19
   2  12   6 632.907 106.143  10
  -2 -12   6 579.816 117.052  14
  -2 -12   7 875.433 114.749  19
  -2 -12   7 1056.46 134.832  14
   2  12   7 1079.35 125.341  10
   2  12   8 4390.39 234.072  10
  -2 -12   8 4282.94 230.841  19
  -2 -12   8 4442.36 242.250  14
   2  12   9 3807.14 208.854  10
  -2 -12   9 3444.42 194.758  19
  -2 -12   9 3469.00 197.378  14
  -2 -12  10 6993.09 276.637  19
  -2 -12  10 6352.16 258.855  14
   2  12  10 6754.69 286.121  10
  -2 -12  11 1600.45 112.023  19
   2  12  11 1670.32 124.789  10
   2  12  12 588.765 73.1007  10
   2 -13   8 3799.75 174.933   8
  -2  13   8 3902.28 174.495  17
   2 -13   7 1290.69 108.888   8
   2 -13   6 5971.76 229.878  19
  -2  13   6 6556.16 268.251  17
   2 -13   5 1298.74 103.682  19
  -2  13   5 1588.33 132.506  17
  -2  13   4 843.545 105.857  17
   2 -13   4 738.661 84.1848  19
  -2 -13  -4 570.342 70.4246  14
  -2  13   3 5618.59 258.842  17
   2 -13   3 4771.31 223.420  19
  -2 -13  -3 5300.94 231.438  14
   2 -13   2 867.901 100.090  19
  -2  13   2 866.588 102.952  17
  -2 -13  -2 789.068 97.8462  14
   2 -13   1 95.0803 58.7424  19
  -2  13   1-14.5510 63.0684  17
  -2 -13  -1 15.1560 62.3199  14
  -2  13   0 6052.05 266.289  17
  -2 -13   0 6408.11 287.669  14
  -2 -13   1-26.2557 60.8250  19
  -2  13  -1 11.9479 57.0616  17
  -2 -13   1-32.7935 71.5693  14
  -2 -13   2 1042.58 103.129  19
  -2  13  -2 753.899 80.3327  17
  -2 -13   2 895.148 114.841  14
  -2 -13   3 5447.08 237.384  19
  -2 -13   3 5305.73 260.730  14
  -2 -13   4 615.360 83.7035  19
  -2 -13   5 1428.43 109.778  19
  -2 -13   6 5828.20 230.072  19
  -2 -13   6 6029.94 255.127  14
  -2 -13   7 1067.16 92.4082  14
  -3   0   0 34.6705 73.8094   2
   3   0   0 40.7819 65.1156  20
  -3   0   0 10.7295 57.7632   3
   3   0  -1 26367.2 851.131  20
   3   0   1 24534.4 796.976  20
  -3   0  -1 26791.7 913.707  21
  -3   0   1 25782.6 841.686   3
  -3   0   1 24517.5 865.311   2
  -3   0   2 5608.49 246.609  22
   3   0   2 6433.31 279.276  20
   3   0  -2 5606.83 250.973  23
  -3   0   2 5746.63 336.601   2
  -3   0   2 5621.97 313.298   3
  -3   0  -2 6317.35 361.993  21
  -3   0   3 6349.08 255.518  22
   3   0   3 6997.21 282.498  20
   3   0  -3 6295.84 254.507  23
  -3   0  -3 6914.27 392.581  21
  -3   0   3 6718.49 379.948   2
  -3   0   3 6909.43 350.703   3
  -3   0  -4 133406. 3373.96  21
   3   0   4 128752. 3119.98  20
  -3   0   4 132053. 3360.87   2
  -3   0   4 128066. 3346.74  21
  -3   0   4 129960. 3291.05   3
  -3   0  -5 3286.04 277.004  21
  -3   0   5 3290.85 274.125  21
   3   0   5 3035.92 145.232  20
   3   0  -5 2681.57 134.231  23
  -3   0   5 3566.34 287.142   2
   3   0   5 3154.05 168.079   6
  -3   0   5 3013.50 237.554   3
  -3   0  -6 87078.2 2470.27  21
  -3   0   6 83318.0 2466.74   2
   3   0   6 87693.6 2454.00   1
   3   0   6 82698.0 2214.20   6
  -3   0   6 87206.3 2409.00   3
  -3   0  -7 41691.1 1406.81  21
  -3   0   7 40959.2 1345.60   3
   3   0   7 43488.6 1397.45   1
  -3   0   7 40057.6 1147.63   5
   3   0   7 42469.6 1167.78   6
  -3   0  -8 27802.2 1070.82  21
   3   0   8 29882.6 1060.67   1
   3   0   8 28195.1 847.920   6
  -3   0   8 27454.4 819.278   5
  -3   0   9-23.2851 96.4982   2
  -3   0  -9 23.2851 105.156  21
  -3   0   9 91.9435 57.3368   5
   3   0   9-8.70738 58.4684   6
   3   0   9 61.3666 105.964   1
  -3   0 -10 18935.9 864.229  21
  -3   0  10 17817.3 576.310   5
   3   0  10 18525.4 814.761   1
   3   0  10 18579.8 633.645   6
  -3   0  10 19319.2 864.129   2
  -3   0 -11 7689.81 531.401  21
   3   0  11 7603.68 383.303   8
   3   0  11 7819.44 489.013   1
   3   0  11 7679.45 360.259   6
  -3   0  11 7585.08 377.641  15
   3   0  12 1439.95 222.545   1
  -3   0 -12 1527.90 255.432  21
   3   0  12 1427.62 150.875  19
  -3   0  12 1339.58 146.751  19
   3   0  12 1732.24 187.036   8
  -3   0  12 1483.25 172.621  15
  -3   0  12 1575.80 154.256  11
   3   0  12 1429.15 156.100   6
   3   0  13 5660.07 339.365   8
   3   0  13 4876.64 285.677  19
  -3   0  13 5584.89 301.672  19
   3   0  13 5179.79 287.174   7
  -3   0  13 5169.78 318.454  15
   3   0  13 4921.25 412.828   1
   3   0  13 5424.78 308.561   6
  -3   0 -13 5096.07 463.427  21
  -3   0  13 4949.63 276.818  11
  -3   0 -14 4101.76 419.734  21
   3   0  14 4389.19 290.142   6
  -3   0  14 4638.15 283.912  19
   3   0  14 4851.06 325.435   8
   3   0  14 4297.09 254.161   7
  -3   0  14 4280.76 304.901  15
   3   0  14 4692.88 402.813   1
   3   0  14 4001.58 271.255  19
  -3   0 -15 5302.74 493.595  21
   3   0  15 4792.40 299.229  19
  -3   0  15 5315.65 312.580  19
   3   0  15 5270.48 346.089   8
   3   0  15 5363.92 283.071   7
  -3   0  15 5166.28 332.498  15
   3   0  15 4297.84 301.975  13
   3   0  15 4805.33 416.723   1
   3   0  16 2595.88 318.927   1
  -3   0  16 3420.35 271.842  15
   3   0 -16 3018.28 396.301  20
   3   0  16 2817.18 232.528  19
   3   0  16 3449.03 285.842   8
   3   0  16 2710.14 197.092   7
   3   0  16 2748.21 234.091  13
  -3   0  16 2960.96 238.747  19
  -3   0 -16 2683.85 362.616  21
  -3   0 -17 1004.27 247.735  21
   3   0 -17 823.708 220.835  20
   3   0  17 1039.73 154.691  19
  -3   0  17 1105.91 158.837  19
   3   0  17 1023.81 177.895   8
   3   0  17 1130.08 198.877  15
   3   0  17 1065.62 152.845  13
  -3   0  17 885.618 164.095  15
   3   0 -18 4526.58 470.782  20
   3   0  18 5812.28 335.925  19
  -3   0  18 5303.39 343.752  15
  -3   0  18 5703.01 339.480  19
   3   0  18 6219.75 384.953  15
  -3   0 -18 5204.89 489.649  21
   3   0  18 4769.94 283.492  13
   3   0  19 5107.93 314.946  19
  -3   0  19 5694.98 349.429  15
  -3   0  19 5647.40 334.839  19
   3   0  19 5900.85 378.182  15
   3   0  20 1124.81 154.905  19
  -3   0  20 1235.00 162.113  19
   3   0  20 1357.20 189.303  15
   3   0  21 909.979 154.456  15
   3   0  22 761.135 132.094   8
   3   0  22 911.883 143.440  15
   3   0  23 27.1725 77.3994   8
   3   0  23 120.522 82.0818  15
   3   0  24 2201.26 149.414   8
   3   0  24 2342.03 155.299  15
   3   0  25 130.554 41.2031   8
   3  -1  24 2346.18 152.778   8
   3  -1  24 2118.52 139.855  15
   3  -1  23 611.887 112.456   8
   3  -1  23 599.861 103.554  15
   3  -1  22 408.462 116.946   8
   3  -1  22 543.757 117.475  15
   3  -1  21 2426.50 196.921  19
   3  -1  21 3145.49 239.350  15
   3  -1  20 2176.84 196.663  19
   3  -1  20 2517.59 232.339  15
   3  -1  19 1447.25 175.104  19
   3  -1  19 1698.48 209.871  15
  -3   1  19 1334.79 193.822  15
  -3  -1 -18 3096.88 399.335  21
  -3   1  18 4282.80 288.709  19
   3  -1  18 3792.17 271.829  19
  -3   1  18 3999.54 309.743  15
   3  -1  18 3730.51 304.601  15
  -3  -1 -17 4338.37 474.885  21
   3  -1  17 4002.54 247.376   7
  -3   1  17 5023.06 315.216  19
   3  -1  17 4301.54 294.561  19
   3  -1  17 4569.63 414.811   1
   3  -1  17 4959.15 348.042   8
  -3   1  17 4832.94 341.437  15
   3  -1  17 5003.39 346.261  15
  -3  -1 -16 9899.20 708.412  21
  -3   1  16 9823.11 457.911  19
   3  -1  16 10300.3 463.387  19
   3  -1  16 10331.1 515.676   8
   3  -1  16 9331.91 610.978   1
  -3   1  16 9287.95 484.605  15
   3  -1  16 8788.56 399.954   7
   3  -1  16 9413.60 490.603  15
   3  -1  16 8215.28 422.291  13
   3  -1  15 17508.3 668.626  19
  -3   1  15 18287.4 681.473  19
   3  -1  15 16762.4 715.294   8
  -3  -1 -15 17735.4 973.418  21
  -3   1  15 17727.2 717.781  15
   3  -1  15 17395.3 634.246   7
   3  -1  15 18590.8 738.939  15
   3  -1  15 17569.1 871.948   1
  -3  -1 -14 973.089 240.143  21
  -3   1  14 818.599 135.845  19
   3  -1  14 934.384 167.234   8
   3  -1  14 1189.35 228.365   1
  -3   1  14 847.844 162.302  15
   3  -1  14 949.394 162.814  15
   3  -1  14 1023.66 138.177   7
   3  -1  14 854.625 136.336  19
  -3  -1 -13 8445.48 611.147  21
  -3   1  13 8288.51 382.900  19
   3  -1  13 7519.58 370.536  19
   3  -1  13 8263.71 430.219   8
   3  -1  13 7727.38 369.239   7
  -3   1  13 7672.74 358.221  11
   3  -1  13 9351.30 577.686   1
  -3   1  13 8645.11 431.855  15
  -3  -1 -12 4604.92 436.538  21
   3  -1  12 4657.06 272.884   6
  -3   1  12 4082.99 252.580  19
   3  -1  12 4151.83 256.501  19
   3  -1  12 4617.16 304.201   8
   3  -1  12 4587.60 262.536   7
  -3   1  12 4799.77 304.282  15
   3  -1  12 4910.00 409.255   1
   3  -1  11 2354.71 183.426   6
  -3  -1 -11 3000.63 334.978  21
  -3   1  11 2403.16 156.910   5
   3  -1  11 2403.44 212.936   8
   3  -1  11 2524.65 189.571   7
  -3   1  11 2445.50 212.031  15
   3  -1  11 2195.64 269.302   1
  -3  -1 -10 40381.4 1502.84  21
  -3   1  10 39252.4 1146.67   5
  -3   1  10 41720.8 1241.95  15
   3  -1  10 41419.6 1239.98   8
   3  -1  10 41491.2 1437.79   1
   3  -1  10 42068.1 1199.19   6
  -3  -1  -9 32981.7 1236.79  21
  -3   1   9 30491.9 919.009   5
   3  -1   9 33631.9 1192.60   1
   3  -1   9 31851.5 948.498   6
  -3  -1  -8 113205. 3188.55  21
   3  -1   8 116910. 3159.74   1
   3   1  -8 109289. 2907.32  23
  -3   1   8 108784. 2846.56   5
   3  -1   8 109605. 2859.88   6
  -3  -1  -7 33783.7 1193.45  21
  -3   1   7 31502.2 933.038   5
   3   1  -7 31515.6 976.629  23
   3  -1   7 33462.6 938.074   6
  -3  -1  -6 74614.9 2128.72  21
   3  -1   6 70587.0 1880.25  20
   3  -1   6 67266.5 1828.57   6
   3   1  -6 70015.6 1893.80  23
  -3   1   6 69727.3 1847.33   5
  -3  -1  -5 87456.5 2563.58  21
  -3   1   5 89857.7 2453.72   3
   3  -1   5 89590.0 2354.92  20
  -3   1   5 90293.0 2386.45  22
   3  -1   5 87627.7 2291.01   6
  -3   1   5 89876.9 2317.91   5
   3  -1   5 91237.1 2548.91   1
   3   1  -5 87601.2 2364.31  23
  -3   1   4 4191.11 238.169  22
  -3   1   4 3986.75 201.453   5
   3  -1   4 4403.05 311.956   1
  -3   1   4 4082.87 256.499   3
   3  -1   4 4741.69 241.220  20
  -3  -1  -4 4484.31 319.362  21
   3   1  -4 3942.31 230.544  23
  -3   1   3 52321.9 1417.88   5
  -3   1   3 52877.8 1613.20  21
   3  -1   3 51927.4 1480.83  20
   3   1  -3 52359.1 1481.58  23
  -3  -1  -3 52071.7 1458.42   2
  -3   1   3 53193.3 1483.52  22
  -3   1   3 54260.1 1511.57   3
  -3   1   2 5650.93 341.625  21
   3  -1   2 5170.53 277.455  20
  -3  -1  -2 5173.24 269.623   2
  -3   1   2 5255.57 274.530  22
  -3   1   2 5078.57 273.112   3
   3   1  -2 5123.56 273.303  23
  -3   1   1 72.1177 51.1657   3
   3  -1   1 31.8283 69.5251  20
  -3   1   1 29.6843 84.2286  21
   3   1  -1 10.3778 64.5189  23
  -3  -1  -1 63.3122 65.6015   2
   3  -1   0 5444.32 306.892  20
  -3  -1   0 6008.50 316.333   2
  -3   1   0 5472.98 277.131   3
   3   1   0 5300.18 299.789  23
  -3   1   0 5945.74 350.602  21
  -3  -1   0 5963.45 346.188  21
  -3  -1   1 14.1574 80.3471  21
  -3   1  -1 207.044 98.1140  21
   3   1   1 12.3473 72.3747  23
  -3  -1   1-12.7194 68.4852   2
   3  -1  -1 101.415 92.8763  20
   3   1   1 72.5742 52.1890  20
  -3  -1   1 77.4193 82.4160   3
   3  -1  -2 5170.18 304.067  20
  -3   1  -2 5739.42 333.669  21
   3   1   2 4842.64 212.536  20
  -3  -1   2 5119.64 307.804   2
  -3  -1   2 5517.97 308.640   3
   3   1   2 4734.31 298.279  23
  -3  -1   2 5543.70 319.985  21
   3   1   3 49510.4 1343.97  20
  -3   1  -3 53241.0 1577.66  21
  -3  -1   3 52036.2 1563.68   2
  -3  -1   3 53684.7 1558.41  21
  -3  -1   3 52188.1 1541.14   3
   3   1   3 49752.1 1367.30   6
   3  -1  -3 54348.1 1571.88  20
  -3   1  -4 4210.78 298.014  21
  -3  -1   4 4159.75 286.192  21
  -3  -1   4 4157.75 296.208   2
  -3  -1   4 4567.22 294.649   3
   3   1   4 3839.45 187.726   6
  -3  -1   5 91812.1 2521.69  21
  -3   1  -5 90313.6 2547.21  21
  -3  -1   5 91647.1 2566.30   2
   3   1   5 87003.6 2326.78   6
  -3  -1   5 90855.0 2522.81   3
  -3   1  -6 70299.5 2087.22  21
  -3  -1   6 72803.3 2120.42   2
   3   1   6 70316.6 1873.27   6
  -3  -1   6 68139.1 2056.48   3
  -3   1  -7 33459.3 1157.69  21
   3   1   7 32048.3 953.294   6
  -3  -1   7 32136.0 1147.53   3
  -3   1  -8 112993. 3235.49  21
   3   1   8 113027. 3215.54   1
  -3  -1   8 117248. 3243.93   3
   3   1   8 115920. 2997.44   6
  -3   1  -9 33578.3 1192.20  21
  -3  -1   9 31052.8 905.781   5
   3   1   9 33890.6 1164.79   1
  -3  -1   9 31793.4 1204.24   2
   3   1   9 30579.2 956.620   6
   3   1  10 41663.4 1409.61   1
   3   1  10 42010.0 1237.15   8
  -3   1 -10 42536.1 1462.78  21
  -3  -1  10 39376.4 1130.59   5
  -3  -1  10 42341.8 1493.58   2
   3   1  10 41399.3 1211.42   6
  -3   1 -11 1929.05 260.934  21
   3   1  11 2663.81 213.701   8
  -3  -1  11 2281.72 195.234  15
   3   1  11 2530.16 278.502   1
  -3  -1  11 2801.82 311.306   2
   3   1  11 2892.93 209.013   6
  -3   1 -12 4840.53 412.462  21
   3   1  12 5006.26 308.318   8
   3   1  12 4740.43 375.644   1
   3   1  12 4285.50 256.779  19
  -3  -1  12 4099.01 254.415  19
  -3  -1  12 4429.46 280.268  15
  -3  -1  12 4755.80 426.755   2
   3   1  12 4654.68 279.907   6
  -3  -1  12 4569.85 262.266  11
   3  -1 -13 7895.82 582.330  20
   3   1  13 7930.66 378.106  19
  -3  -1  13 8075.63 381.840  19
   3   1  13 7564.21 408.367   8
  -3  -1  13 8353.95 404.623  15
   3   1  13 8521.25 515.760   1
  -3   1 -13 9665.81 604.075  21
   3   1  13 8417.67 437.338  15
  -3  -1  13 8376.83 583.749   2
  -3  -1  13 7404.42 358.095  11
   3   1  13 7969.97 400.761   6
   3   1  14 1063.30 194.127   1
   3   1  14 952.936 143.374  19
  -3  -1  14 911.918 141.741  19
  -3   1 -14 762.023 203.510  21
  -3  -1  14 872.319 146.975  15
   3   1  14 962.088 174.961  15
   3   1  14 936.738 126.395   7
   3   1  14 1143.12 175.367   8
   3   1  14 774.912 152.737  13
   3   1  14 1092.29 157.268   6
   3  -1 -14 963.735 232.240  20
  -3   1 -15 18998.6 932.217  21
  -3  -1  15 17782.8 677.137  19
   3  -1 -15 19568.6 1002.03  20
   3   1  15 17206.1 617.374   7
   3   1  15 17938.2 727.133   8
  -3  -1  15 17788.7 695.503  15
   3   1  15 16963.8 730.957  15
   3   1  15 19354.2 712.907   6
   3   1  15 18263.9 704.675  13
   3   1  15 17695.0 673.607  19
   3   1  15 18034.0 825.438   1
   3   1  16 9744.16 467.866   6
  -3   1 -16 8910.94 618.047  21
   3   1  16 9134.10 444.874  19
  -3  -1  16 8909.61 440.401  19
   3   1  16 9404.69 488.927   8
  -3  -1  16 9858.30 471.654  15
   3   1  16 9944.94 511.230  15
   3  -1 -16 8511.99 651.557  20
   3   1  16 9283.23 452.524  13
  -3  -1  17 5083.61 314.781  19
   3   1  17 4856.36 309.562  19
   3   1  17 5015.47 345.421   8
  -3  -1  17 5398.59 335.105  15
   3  -1 -17 4743.88 485.049  20
   3   1  17 4553.97 346.775  15
   3   1  17 4141.85 287.485  13
   3   1  18 2937.95 247.347  19
  -3  -1  18 3705.66 268.146  19
   3  -1 -18 3857.65 431.836  20
  -3  -1  18 4321.36 294.609  15
   3   1  18 3562.06 248.883  13
  -3  -1  19 1490.24 178.040  19
  -3  -1  20 2677.94 222.074  19
  -3  -1  21 2679.88 210.126  19
   3   1  22 675.499 126.234   8
   3   1  23 791.343 116.122   8
   3   1  24 2519.83 157.084   8
   3   1  24 2369.25 160.614  15
   3   1  25 4339.51 181.502  15
   3  -2  24 4383.26 207.367   8
   3  -2  23 1790.41 152.931   8
   3  -2  23 1832.47 137.407  15
   3  -2  22 2207.63 168.477  19
   3  -2  22 2615.27 208.184   8
   3  -2  22 2405.89 181.552  15
   3  -2  21 2620.90 198.642  19
   3  -2  21 2712.56 212.663  15
   3  -2  20 5818.22 321.041  19
   3  -2  20 6216.54 345.551  15
   3  -2  19 2459.45 212.783  19
  -3   2  19 2506.65 247.161  15
   3  -2  19 2444.06 230.257  15
  -3  -2 -18 1376.01 279.631  21
   3  -2  18 1061.65 161.538  19
   3  -2  18 1166.53 225.941   1
  -3   2  18 1138.45 186.647  15
   3  -2  18 1340.68 187.753  15
   3  -2  17 648.114 187.249   1
   3  -2  17 791.165 146.974  19
  -3  -2 -17 580.458 219.715  21
   3  -2  17 600.404 163.536   8
  -3   2  17 835.575 174.864  15
   3  -2  17 685.040 159.262  15
   3  -2  17 740.357 115.714   7
  -3  -2 -16 15172.5 921.151  21
   3  -2  16 14478.0 601.246  19
   3  -2  16 14740.8 662.159   8
   3  -2  16 14383.0 806.631   1
   3  -2  16 14867.7 567.035   7
   3  -2  16 14832.1 636.436  15
   3  -2  15 4231.53 292.705  19
   3  -2  15 5181.56 351.210   8
   3  -2  15 4774.75 449.273   1
   3  -2  15 4804.64 284.579   7
   3  -2  15 4555.90 324.676  15
  -3  -2 -15 4608.08 494.425  21
  -3  -2 -14 233.007 180.050  21
  -3   2  14 187.993 89.2615  19
   3  -2  14 263.297 104.127  19
   3  -2  14 178.977 122.897   8
   3  -2  14 400.018 171.800   1
   3  -2  14 378.801 132.437  15
   3  -2  14 361.437 104.818   7
  -3  -2 -13 7259.85 588.553  21
  -3   2  13 7739.02 381.859  19
   3  -2  13 7611.82 377.481  19
   3  -2  13 7776.18 422.280   8
   3  -2  13 7514.22 366.573   7
   3  -2  13 7745.03 555.511   1
   3  -2  12 15529.2 574.836  19
   3  -2  12 15122.4 622.642   8
   3  -2  12 15818.8 581.728   7
  -3  -2 -12 16880.4 895.759  21
   3  -2  12 15717.3 799.643   1
  -3   2  12 14053.1 562.883  19
  -3  -2 -11 2359.97 331.244  21
   3  -2  11 2643.53 224.158   8
   3   2 -11 2555.67 242.768  23
   3  -2  11 2495.05 193.881   7
   3  -2  11 2539.89 301.637   1
  -3  -2 -10 13218.2 742.466  21
  -3   2  10 12846.3 459.863   5
   3  -2  10 13142.7 531.546   8
   3  -2  10 12555.5 491.458   7
   3  -2  10 12431.1 673.781   1
   3   2 -10 12082.9 567.253  23
  -3  -2  -9 2133.72 277.237  21
   3  -2   9 1999.43 259.721   1
  -3   2   9 2259.35 157.140   5
  -3   2   9 2352.39 226.618   4
   3  -2   9 1921.42 167.965   7
   3   2  -9 1622.50 188.209  23
  -3   2   8 10432.7 397.252   5
  -3   2   8 10930.9 501.063   4
  -3  -2  -8 11153.7 618.151  21
   3   2  -8 9638.55 471.997  23
   3  -2   8 10600.8 393.342   6
  -3  -2  -7 48943.9 1643.27  21
   3   2  -7 48446.1 1474.80  23
  -3   2   7 49437.6 1361.86   5
   3  -2   7 50406.5 1465.51  20
  -3   2   7 50492.0 1470.85   4
   3  -2   7 47683.9 1338.55   6
  -3   2   6 26367.2 792.078   5
   3  -2   6 27308.9 880.779  20
   3  -2   6 26159.4 762.993   6
   3  -2   6 26521.4 992.771   1
  -3   2   6 26185.6 855.663   4
  -3   2   6 25645.2 907.118  22
   3   2  -6 25738.2 890.457  23
   3   2  -5 39789.1 1201.04  23
  -3   2   5 39931.1 1220.77  22
  -3   2   5 35505.4 1117.89   4
   3  -2   5 40607.4 1189.74  20
   3  -2   5 40217.9 1303.22   1
  -3   2   5 38535.5 1088.74   5
  -3  -2  -5 37542.5 1052.09   2
   3   2  -4 103593. 2839.91  23
  -3   2   4 109251. 2859.56  22
  -3   2   4 105152. 2720.43   5
   3  -2   4 109070. 2835.06  20
   3  -2   4 103515. 2938.87   1
  -3   2   4 102544. 2734.69   4
  -3  -2  -4 104676. 2735.88   2
  -3   2   3 13806.4 632.122  21
   3  -2   3 14954.0 575.574  20
   3  -2   3 14593.5 630.668   1
  -3  -2  -3 15482.7 648.836  21
  -3   2   3 13500.1 470.732   4
  -3  -2  -3 14761.8 526.703   2
   3   2  -3 15365.7 591.972  23
  -3   2   3 13474.7 506.168   3
  -3   2   3 15574.4 591.827  22
  -3   2   2 36596.0 1143.64  22
  -3  -2  -2 38663.7 1213.87  21
   3  -2   2 35084.8 1167.55   1
  -3   2   2 36095.0 1205.77  21
   3   2  -2 34998.4 1133.58  23
   3  -2   2 36862.9 1135.00  20
  -3   2   2 35249.2 988.319   4
  -3  -2  -2 36753.4 1097.41   2
  -3   2   2 35239.0 1034.35   3
   3  -2   1 18415.3 705.214   1
  -3   2   1 18328.6 572.614   5
   3   2  -1 18314.1 691.871  23
  -3  -2  -1 17852.5 656.769   2
   3  -2   1 18850.2 688.228  20
  -3   2   1 18977.1 735.980  21
  -3   2   1 17250.4 532.680   4
  -3  -2  -1 19293.2 726.316  21
  -3   2   1 18382.9 579.351   3
   3  -2   0 31678.9 1055.86  20
   3  -2   0 31239.6 1047.99   1
  -3  -2   0 33969.1 1091.31  21
  -3  -2   0 33296.2 1048.10   2
  -3   2   0 32031.0 1088.47  21
  -3   2   0 32999.5 925.475   3
  -3   2   0 31432.9 918.862   5
   3   2   0 33085.2 1072.67  23
  -3  -2   1 18553.5 709.338  21
   3  -2  -1 18956.4 712.919  20
  -3   2  -1 17787.0 569.498   5
  -3  -2   1 18140.7 696.203   2
  -3   2  -1 18015.4 717.986  21
   3   2   1 18166.7 546.272   4
  -3  -2   1 20008.0 739.097   3
  -3   2  -1 18564.4 574.241   3
   3   2   1 18497.5 722.014  23
  -3  -2   2 35826.2 1159.33  21
  -3   2  -2 34976.9 1178.20  21
   3  -2  -2 33831.1 1173.95  20
  -3  -2   2 36442.9 1188.24   2
   3   2   2 36923.4 1207.53  23
   3   2   2 37230.8 1006.06   4
  -3   2  -2 37358.6 1027.08   3
  -3  -2   2 38170.0 1203.77   3
   3   2   2 35241.1 1017.23   6
  -3   2  -2 35934.3 1013.29   5
  -3  -2   3 14030.8 575.244  21
  -3  -2   3 14661.7 617.411   2
  -3   2  -3 14417.3 454.343   5
  -3  -2   3 15459.3 626.936   3
   3   2   3 13647.2 461.362   6
   3   2   3 13769.8 461.183   4
  -3   2  -3 14534.8 607.596  21
   3   2   3 14170.2 626.541  23
  -3  -2   4 104539. 2830.59  21
   3   2   4 104061. 2676.56   6
   3   2   4 100761. 2690.78   4
  -3  -2   4 110546. 2917.27   2
  -3   2  -4 100917. 2648.34   5
  -3   2  -4 104635. 2868.27  21
  -3  -2   4 101876. 2870.54   3
   3   2   4 104921. 2924.45  23
  -3  -2   5 40086.0 1250.04  21
  -3   2  -5 38402.9 1076.27   5
   3   2   5 39574.5 1152.12   4
  -3  -2   5 38322.3 1320.03   2
   3   2   5 39548.6 1114.99   6
  -3  -2   5 39576.4 1299.25   3
  -3   2  -5 38315.9 1280.95  21
  -3   2  -6 24422.5 931.043  21
   3  -2  -6 26028.5 992.801  20
  -3   2  -6 25146.3 739.247   5
   3   2   6 26680.4 847.252   4
  -3  -2   6 26257.4 996.570   2
   3   2   6 24934.9 788.258   6
  -3  -2   6 26151.8 974.433   3
  -3   2  -7 49584.5 1557.33  21
   3  -2  -7 48955.0 1611.26  20
   3   2   7 48291.1 1447.84   4
   3   2   7 48310.1 1363.84   6
  -3  -2   7 46599.2 1562.57   3
  -3   2  -8 11904.1 580.335  21
   3   2   8 11823.5 522.296   4
   3  -2  -8 10472.9 612.614  20
   3   2   8 10670.3 438.753   6
  -3  -2   8 10911.5 589.944   3
  -3   2  -9 2108.23 242.850  21
  -3  -2   9 1627.88 233.564   3
   3   2   9 1998.62 234.762   1
   3  -2  -9 2353.59 281.326  20
   3   2   9 2353.82 223.553   4
  -3  -2   9 1892.61 263.740   2
   3   2   9 2163.55 178.336   6
  -3   2 -10 12546.3 646.159  21
   3   2  10 13888.4 652.172   1
  -3  -2  10 13547.5 727.338   2
   3  -2 -10 12622.9 704.062  20
   3   2  10 12851.3 507.977   6
   3   2  10 13004.6 522.254   8
  -3   2 -11 2487.12 281.450  21
   3  -2 -11 2640.46 323.836  20
  -3  -2  11 2619.82 202.638  11
   3   2  11 2588.84 275.662   1
   3   2  11 2571.92 213.449   8
  -3  -2  11 2565.98 319.860   2
   3   2  11 2904.37 215.339   6
  -3   2 -12 15512.9 753.789  21
   3  -2 -12 15766.3 830.592  20
   3   2  12 15830.3 575.573  19
  -3  -2  12 14369.9 557.044  11
  -3  -2  12 14317.8 561.069  19
   3   2  12 15739.2 614.296   8
   3   2  12 15752.5 712.467   1
  -3  -2  12 14128.9 558.743  15
   3   2  12 15871.6 629.916  15
  -3  -2  12 14923.0 812.590   2
   3   2  12 14632.1 607.944  13
   3   2  12 14886.6 588.747   6
  -3   2 -13 7917.07 529.415  21
   3  -2 -13 7030.96 574.548  20
   3   2  13 8018.97 385.226  19
  -3  -2  13 7244.35 360.325  11
  -3  -2  13 7951.19 388.770  19
   3   2  13 8319.44 431.983   8
   3   2  13 8436.57 411.226   6
  -3  -2  13 7839.41 382.990  15
   3   2  13 8252.89 489.632   1
   3   2  13 8787.81 442.801  15
  -3  -2  13 7480.22 563.567   2
   3   2  13 8029.86 423.003  13
   3   2  14 147.500 78.9249   9
   3  -2 -14 310.963 175.459  20
  -3  -2  14 199.361 154.057   2
   3   2  14 189.419 100.090   1
   3   2  14 276.960 108.495  19
  -3  -2  14 177.982 96.0616  19
   3   2  14 447.067 129.882   8
   3   2  14 237.628 107.555   6
  -3   2 -14 135.427 108.835  21
  -3  -2  14 316.742 110.182  15
   3   2  14 387.129 139.938  15
   3   2  14 310.010 116.621  13
   3  -2 -15 4200.85 452.269  20
  -3  -2  15 4783.73 305.664  19
   3   2  15 4426.45 321.715   8
   3   2  15 4412.32 246.718   7
  -3  -2  15 4212.65 284.912  15
   3   2  15 5133.77 351.930  15
  -3  -2  15 4754.43 461.391   2
   3   2  15 4706.74 317.436  13
   3   2  15 5277.55 330.742   6
   3  -2 -16 14603.5 849.756  20
   3   2  16 13695.4 625.367   8
   3   2  16 13989.3 606.542   6
   3   2  16 14763.0 654.303  15
  -3  -2  16 14290.9 593.228  19
   3   2  16 15178.2 614.863  13
   3  -2 -17 776.083 210.606  20
   3   2  17 603.642 150.362   8
   3   2  17 682.191 122.988  12
   3   2  17 715.162 170.338  15
  -3  -2  17 708.082 143.968  19
   3   2  17 662.024 132.014  13
   3  -2 -18 1337.41 267.458  20
  -3  -2  18 988.899 157.117  19
   3   2  18 1148.31 189.041  15
   3   2  18 1137.49 155.624  13
  -3  -2  19 2593.77 223.163  19
   3   2  19 2699.38 253.896  15
   3   2  19 2211.97 188.547  13
  -3  -2  20 5993.66 328.309  19
   3   2  20 5802.27 363.324  15
  -3  -2  21 2773.63 210.613  19
   3   2  21 3218.80 248.750  15
  -3  -2  22 2090.43 170.181  19
   3   2  22 2619.22 201.023   8
   3   2  22 2563.54 209.671  15
   3   2  23 1755.98 149.381   8
   3   2  23 1978.46 164.964  15
   3   2  24 4535.03 211.488   8
   3   2  24 5052.48 232.655  15
   3  -3  24 2144.18 131.648   8
   3  -3  23 4954.10 247.461   8
   3  -3  22 4436.12 224.189  19
   3  -3  22 4615.84 265.529   8
   3  -3  21 5088.50 272.315  19
   3  -3  21 5756.33 279.457  15
   3  -3  20 407.275 107.562  19
   3  -3  20 512.474 110.671  15
   3  -3  19 7661.62 382.301  19
   3  -3  19 7620.95 383.810  15
  -3  -3 -18 1285.77 281.093  21
   3  -3  18 1663.25 184.793  19
   3  -3  18 1590.21 186.940  15
  -3  -3 -17 5784.38 573.859  21
   3  -3  17 6193.93 352.777  19
   3  -3  17 6353.33 398.718   8
   3  -3  17 6224.37 525.066   1
   3  -3  17 6483.20 369.835  15
   3  -3  17 5833.89 318.359   7
  -3   3  17 5565.80 382.436  15
  -3  -3 -16 6269.69 591.674  21
   3  -3  16 5948.41 526.412   1
   3  -3  16 6973.53 419.562   8
  -3   3  16 7648.98 432.963  15
   3  -3  16 6738.49 351.877   7
   3  -3  16 6911.79 387.930  15
   3  -3  16 6287.14 359.294  19
   3  -3  15 9456.50 663.184   1
   3  -3  15 9673.66 455.626  19
   3  -3  15 9974.96 512.220   8
  -3   3  15 9580.78 499.392  15
   3  -3  15 9206.79 433.032   7
   3  -3  15 10009.7 479.779  15
  -3  -3 -15 9209.05 728.793  21
  -3  -3 -14 60480.9 2223.71  21
   3  -3  14 58207.5 1729.37  19
   3  -3  14 60624.7 2102.43   1
   3  -3  14 60639.8 1817.81   8
  -3   3  14 59690.2 1804.46  15
   3  -3  14 60408.0 1725.94   7
   3  -3  14 59842.3 1766.97  15
  -3  -3 -13 2077.75 338.419  21
   3  -3  13 1880.59 188.812  19
   3  -3  13 2062.06 223.782   8
  -3   3  13 1992.08 225.772  15
   3  -3  13 1912.73 191.097   7
   3  -3  13 2317.03 328.566   1
  -3  -3 -12 15397.1 898.469  21
   3  -3  12 15751.2 589.475  19
   3   3 -12 15451.5 728.241  23
  -3   3  12 15206.1 640.408  15
   3  -3  12 15868.9 602.562   7
   3  -3  12 15207.5 640.640   8
   3  -3  12 16165.1 846.291   1
  -3   3  11 10772.8 487.534  10
  -3  -3 -11 11549.7 731.721  21
   3   3 -11 11504.7 593.969  23
   3  -3  11 10895.8 453.714  19
  -3   3  11 11855.6 630.182   4
   3  -3  11 11471.0 511.584   8
  -3   3  11 11581.3 509.579  15
   3  -3  11 11589.2 476.520   7
   3  -3  11 11154.3 673.236   1
  -3   3  11 10623.7 452.761  17
  -3   3  10 14388.4 579.748  10
  -3   3  10 15151.0 706.003   4
   3  -3  10 15447.5 602.018   8
  -3   3  10 14548.4 589.001  15
   3  -3  10 15015.6 563.027   7
   3   3 -10 13934.0 667.825  23
   3  -3   9 1078.69 148.660   8
  -3   3   9 1015.92 165.848   4
  -3   3   9 1016.47 143.133  15
  -3   3   9 1034.01 118.095   5
   3  -3   9 810.378 128.536   7
  -3   3   9 871.318 133.397  10
   3   3  -9 791.324 157.870  23
   3  -3   8 12700.4 489.538   2
  -3   3   8 14006.9 497.744   5
  -3   3   8 14467.5 619.138   4
   3  -3   8 13822.3 697.424   1
   3   3  -8 13135.7 617.936  23
   3  -3   7 6723.30 395.927  20
  -3   3   7 6684.45 303.118   5
  -3   3   7 6522.70 371.419   4
   3  -3   7 6924.05 454.990   1
   3   3  -7 6277.21 394.545  23
  -3  -3  -6 90664.8 2632.73  21
   3  -3   6 88359.3 2491.77  20
  -3   3   6 86730.4 2328.72   5
  -3   3   6 92093.3 2549.04  22
   3  -3   6 86066.0 2581.84   1
   3  -3   6 91694.1 2347.61   7
   3   3  -6 91261.3 2517.47  23
  -3  -3  -5 46765.1 1569.46  21
  -3   3   5 48104.8 1509.41  22
   3  -3   5 47879.1 1473.62  20
  -3   3   5 48041.4 1332.74   5
   3  -3   5 49296.5 1559.10   1
  -3   3   5 47683.5 1409.60   4
  -3  -3  -5 44392.0 1322.05   2
   3  -3   5 47626.3 1340.62   7
   3   3  -5 50505.2 1512.29  23
  -3  -3  -4 27557.3 1059.69  21
   3  -3   4 28895.4 1007.15  20
  -3   3   4 30159.9 880.166   5
   3  -3   4 29164.3 1050.72   1
  -3  -3  -4 28831.5 913.890   2
  -3   3   4 29093.3 927.745   4
   3  -3   4 29393.3 872.976   7
  -3   3   4 29653.1 1032.40  22
   3   3  -4 29294.1 1020.75  23
   3  -3   3 64197.1 1894.69  20
  -3   3   3 65529.3 1919.95  22
   3  -3   3 64696.5 1929.29   1
  -3  -3  -3 63074.1 1813.53   2
   3  -3   3 66251.0 1736.33   7
  -3  -3  -3 67206.7 1957.22  21
  -3   3   3 60542.1 1771.56   4
   3   3  -3 67215.6 1924.56  23
  -3  -3  -2 42083.6 1415.15  21
  -3   3   2 45462.3 1443.54  21
   3  -3   2 46701.8 1416.10  20
  -3   3   2 44463.6 1240.67   5
   3  -3   2 42601.4 1387.46   1
  -3  -3  -2 43686.2 1335.65   2
   3  -3   2 45500.9 1230.46   7
  -3   3   2 44607.3 1414.41  22
  -3   3   2 43448.3 1266.16   4
   3   3  -2 43994.3 1411.11  23
  -3  -3  -1 64285.1 1781.99  21
  -3   3   1 60976.1 1788.13  21
   3  -3   1 65544.5 1788.05  20
  -3   3   1 59368.9 1585.13   5
   3  -3   1 62555.3 1749.98   1
  -3  -3  -1 58998.0 1711.97   2
   3  -3   1 58925.5 1566.67   7
  -3   3   1 59922.1 1783.62  22
   3   3  -1 61379.0 1786.89  23
  -3   3   1 52940.3 1498.07  23
  -3   3   0 715.571 151.514  21
  -3  -3   0 890.186 146.776  21
   3  -3   0 903.829 152.114  20
  -3   3   0 1181.54 112.875   5
   3  -3   0 999.081 99.5388   7
  -3  -3   0 792.659 143.703   2
   3   3   0 1025.77 170.530  23
   3  -3   0 803.428 140.841   1
  -3  -3   1 61312.9 1811.77  21
  -3   3  -1 60491.5 1837.34  21
   3  -3  -1 63617.9 1875.48  20
  -3   3  -1 60774.9 1664.02   5
   3  -3  -1 63234.0 1789.17   1
  -3  -3   1 62503.3 1844.60   2
   3  -3  -1 60263.6 1632.21   7
  -3  -3   1 65287.4 1885.37   3
   3   3   1 66430.2 1908.69  23
  -3   3  -2 42724.2 1380.10  21
  -3   3  -2 43650.5 1216.40   5
   3  -3  -2 46181.7 1323.51   1
  -3  -3   2 43221.8 1408.24   2
  -3  -3   2 45880.9 1434.91   3
   3   3   2 42011.5 1222.51   6
  -3  -3   2 44088.5 1351.84  21
   3   3   2 44545.2 1454.92  23
  -3   3  -3 61350.6 1683.21   5
   3  -3  -3 64152.1 1766.20   1
  -3  -3   3 64205.2 1825.17  21
  -3  -3   3 62957.6 1909.08   2
   3   3   3 67323.1 1975.29  23
   3   3   3 61547.5 1744.62   4
  -3   3  -3 63205.0 1871.36  21
  -3  -3   3 63190.8 1915.78   3
   3   3   3 62950.1 1706.36   6
   3   3   4 28507.5 1092.99  23
  -3  -3   4 28640.9 958.926  21
  -3   3  -4 28403.1 839.774   5
  -3   3  -4 29096.1 1004.03  21
   3  -3  -4 27386.7 881.820   1
  -3  -3   4 29972.5 1068.85   2
   3   3   4 28922.7 916.740   4
   3   3   4 29666.9 873.143   6
  -3  -3   4 28234.7 1050.99   3
  -3  -3   5 48087.0 1448.61  21
   3   3   5 47750.2 1626.35  23
  -3   3  -5 51439.8 1519.21  21
   3  -3  -5 52909.7 1626.79  20
  -3   3  -5 48254.7 1315.95   5
   3  -3  -5 46357.8 1332.62   1
   3   3   5 46599.5 1421.47   4
   3   3   5 47612.4 1355.68   6
  -3  -3   5 49186.0 1576.07   3
  -3  -3   5 46928.0 1580.03   2
  -3   3  -6 90879.0 2492.57  21
   3  -3  -6 88563.7 2594.36  20
   3   3   6 89868.6 2417.72   4
  -3   3  -6 84675.4 2259.91   5
  -3  -3   6 88630.5 2589.41   2
   3   3   6 84494.4 2313.01   6
   3  -3  -7 6060.37 452.963  20
   3   3   7 6200.91 366.368   4
  -3  -3   7 5312.30 422.881   2
   3   3   7 6708.60 316.250   6
  -3   3  -8 13953.0 638.916  21
   3  -3  -8 13077.9 709.163  20
   3   3   8 14830.4 636.646   4
   3   3   8 14607.9 542.759   6
   3  -3  -9 1307.69 233.819  20
   3   3   9 745.676 126.709   8
   3   3   9 969.901 131.629   6
   3   3   9 850.954 165.537   1
   3   3   9 862.242 161.691   4
  -3  -3   9 1060.18 135.456  11
  -3   3  -9 838.897 163.221  21
  -3   3 -10 15697.8 697.550  21
   3  -3 -10 15774.6 811.459  20
   3   3  10 15574.3 698.764   1
   3   3  10 13979.1 571.184   8
   3   3  10 16542.7 727.549   4
  -3  -3  10 14795.6 797.908   2
  -3  -3  10 14519.2 565.110  11
   3   3  10 14872.8 601.555  13
   3   3  10 15009.0 580.282   6
  -3   3 -11 10999.6 574.335  21
   3   3  11 11178.8 482.008   6
   3   3  11 11056.8 569.520   1
   3   3  11 10922.6 487.356   8
  -3  -3  11 10612.5 451.221  19
   3   3  11 12068.9 628.011   4
   3  -3 -11 11736.2 696.006  20
  -3  -3  11 12021.0 709.018   2
   3   3  11 10982.8 495.257  15
  -3  -3  11 10493.1 458.094  11
   3   3  11 10789.1 501.757  13
   3  -3 -12 14281.0 813.878  20
   3   3  12 15759.9 596.027   9
   3   3  12 16006.2 630.745   8
  -3  -3  12 15183.3 584.759  19
   3   3  12 14628.0 682.870   1
  -3  -3  12 15571.3 850.005   2
  -3  -3  12 15093.0 583.580  11
   3   3  12 16468.2 643.116  15
   3   3  12 15756.7 641.021  13
   3   3  12 14910.0 608.095   6
  -3  -3  13 1953.36 189.775  19
   3   3  13 1792.46 176.885   9
   3  -3 -13 1611.96 286.376  20
   3   3  13 1775.31 202.193   8
   3   3  13 2239.90 223.533  15
   3   3  13 1996.64 218.063  13
  -3  -3  13 1820.28 178.988  11
  -3  -3  13 1868.51 298.052   2
   3   3  14 59261.5 1718.24   9
   3   3  14 61007.0 1810.06   8
  -3  -3  14 62033.3 1770.01  19
   3  -3 -14 57110.7 2101.48  20
   3   3  14 61616.8 1824.81  15
  -3  -3  14 60330.0 2134.14   2
   3   3  14 62161.9 1812.08  13
  -3  -3  15 9111.59 448.871  19
   3   3  15 9415.92 481.326   8
   3  -3 -15 9543.77 665.806  20
   3   3  15 9568.37 495.696  15
  -3  -3  15 9315.51 660.073   2
   3   3  15 9866.11 483.731  13
   3   3  15 9581.34 415.747   9
   3  -3 -16 6543.61 554.126  20
   3   3  16 7766.11 425.772   8
  -3  -3  16 6782.95 378.792  19
   3   3  16 6987.66 416.335  15
  -3  -3  16 6309.94 541.572   2
   3   3  16 7124.29 394.615  13
   3   3  16 6993.31 381.446  12
   3  -3 -17 5850.66 506.101  20
   3   3  17 5918.40 376.039   8
  -3  -3  17 6417.28 358.146  19
   3   3  17 5737.52 376.605  15
   3   3  17 5794.44 346.632  13
   3   3  17 5840.82 334.920  12
  -3  -3  18 1631.52 187.249  19
   3   3  18 1646.00 208.437  15
   3   3  18 1651.63 182.214  13
   3   3  18 1578.32 167.230  12
  -3  -3  19 7920.27 387.260  19
   3   3  19 7365.95 412.662  15
   3   3  19 6518.06 340.762  13
  -3  -3  20 674.932 128.402  19
   3   3  20 464.847 127.984  15
  -3  -3  21 5624.01 290.202  19
   3   3  21 5868.53 331.807  15
   3   3  22 5548.91 283.346   8
   3   3  22 5132.39 286.381  15
   3   3  23 5218.43 248.369   8
   3   3  23 5150.82 257.577  15
   3   3  24 2223.43 130.255   8
   3   3  24 2410.02 145.150  15
   3  -4  23 1011.01 107.984   8
   3  -4  22 1114.24 131.634   8
   3  -4  22 832.230 91.0007  19
   3  -4  21 2345.39 167.752  19
   3  -4  20 1684.73 161.284  19
   3  -4  19 1084.89 147.857  19
   3  -4  18 15892.6 620.541  19
   3  -4  18 16513.6 605.752  15
  -3  -4 -17 1803.95 338.565  21
   3  -4  17 1684.95 189.964  19
   3  -4  17 1703.59 223.807   8
   3  -4  17 1675.04 284.219   1
  -3   4  17 1821.99 221.011  15
   3  -4  17 1856.10 186.671  15
   3  -4  17 1579.33 168.938   7
  -3  -4 -16 5885.95 588.205  21
   3  -4  16 6759.00 373.722  19
   3  -4  16 7861.12 445.599   8
  -3   4  16 6646.57 411.614  15
   3  -4  16 7210.01 587.041   1
   3  -4  16 6825.70 367.801  15
   3  -4  16 7414.79 376.040   7
  -3  -4 -15 20879.3 1133.82  21
   3  -4  15 21269.3 772.750  19
   3  -4  15 20162.7 1044.86   1
   3  -4  15 22189.7 847.899   8
  -3   4  15 20829.1 824.085  15
   3  -4  15 21115.9 757.588   7
   3  -4  15 19994.1 749.301  15
  -3  -4 -14 16048.4 975.908  21
   3  -4  14 16176.0 900.502   1
   3  -4  14 16767.6 645.646  19
   3  -4  14 15288.1 685.984   8
  -3   4  14 17891.4 711.525  15
   3  -4  14 16193.0 638.524   7
   3  -4  14 15704.0 632.253  15
   3  -4  13 90136.5 2871.04   1
   3  -4  13 86655.6 2429.97  19
  -3   4  13 90580.8 2759.89   4
   3  -4  13 85768.4 2508.00   8
  -3   4  13 85653.6 2473.27  10
  -3   4  13 91228.8 2513.39  15
   3  -4  13 92239.4 2456.65   7
   3  -4  13 86461.6 2437.89  15
   3   4 -13 89904.3 2708.45  23
   3  -4  12 5128.49 474.847   1
   3  -4  12 5514.62 311.198  19
  -3   4  12 4893.19 421.253   4
  -3   4  12 5068.08 335.695  15
   3  -4  12 5227.83 314.376   7
  -3   4  12 4786.24 293.333  17
   3   4 -12 4632.30 409.055  23
   3  -4  12 5674.18 356.492   8
  -3   4  12 5030.88 323.865  10
  -3   4  11 7641.67 404.451  10
   3  -4  11 7241.91 358.376  19
  -3   4  11 7163.47 490.165   4
   3  -4  11 7711.82 411.822   8
  -3   4  11 6816.44 361.047  17
  -3   4  11 6953.81 389.522  15
   3  -4  11 7686.75 386.321   7
   3   4 -11 7702.51 511.680  23
  -3  -4 -10 11184.7 713.181  21
  -3   4  10 10741.6 494.866  10
   3  -4  10 10507.5 443.234  19
  -3   4  10 10518.4 588.547   4
  -3   4  10 10360.8 464.512  17
  -3   4  10 11125.6 494.962  15
   3  -4  10 10893.5 473.615   7
   3   4 -10 11460.9 625.090  23
  -3   4   9 26106.7 905.290  10
  -3  -4  -9 28865.0 1201.19  21
  -3   4   9 27949.7 1044.64   4
  -3   4   9 25491.9 875.829  17
  -3   4   9 26460.3 896.650  15
   3  -4   9 26498.3 1126.55   1
   3   4  -9 26618.7 1063.95  23
  -3   4   8 39186.7 1204.33  17
  -3  -4  -8 40810.0 1507.18  21
  -3   4   8 37640.3 1217.95  10
   3  -4   8 40799.7 1397.73  20
  -3   4   8 41093.6 1355.83   4
   3   4  -8 40667.5 1400.63  23
   3  -4   8 38142.7 1436.23   1
  -3   4   7 23148.0 981.383  22
  -3  -4  -7 23157.7 1024.67  21
  -3   4   7 22957.2 813.835  10
   3  -4   7 23296.6 946.563  20
  -3   4   7 24418.5 914.726   4
   3  -4   7 25429.7 799.996   7
   3  -4   7 25151.3 1027.19   1
   3   4  -7 24343.2 971.803  23
  -3   4   6 17550.6 791.184  22
  -3  -4  -6 16473.6 798.479  21
  -3   4   6 17272.9 707.647   4
   3  -4   6 19385.2 784.607  20
  -3   4   6 16526.5 594.949   5
   3  -4   6 16727.2 598.585   7
   3  -4   6 17357.1 796.348   1
   3   4  -6 16541.4 757.913  23
  -3   4   5 22423.3 919.070  22
  -3  -4  -5 21703.1 923.495  21
  -3   4   5 22398.0 726.147   5
  -3  -4  -5 22159.8 760.990   2
  -3   4   5 20450.8 800.706   4
   3  -4   5 22513.6 727.992   7
   3  -4   5 21671.5 903.639   1
   3  -4   5 22268.6 882.427  20
   3   4  -5 23164.7 913.890  23
  -3  -4  -4 22000.6 910.089  21
   3   4  -4 21993.5 900.478  23
  -3  -4  -4 22610.2 792.233   2
   3  -4   4 22977.7 898.741  20
   3  -4   4 23318.8 723.741   7
  -3   4   4 21012.2 798.063   4
   3  -4   4 22070.0 891.157   1
  -3   4   4 21883.9 906.650  22
   3  -4   3 39015.1 1339.91  20
  -3   4   3 40973.5 1386.31  22
  -3  -4  -3 38240.3 1245.29   2
   3  -4   3 40043.9 1142.06   7
  -3   4   3 39062.7 1234.05   4
   3  -4   3 41361.8 1346.61   1
  -3  -4  -3 40563.6 1347.59  21
   3   4  -3 39156.3 1353.60  23
  -3   4   2 69509.4 2061.81  22
  -3  -4  -2 61765.3 1976.13  21
   3  -4   2 69615.8 2036.45  20
  -3  -4  -2 67033.7 1952.60   2
   3  -4   2 68265.0 1801.43   7
   3  -4   2 66001.4 1984.48   1
  -3   4   2 66559.6 1816.89   5
   3   4  -2 64802.2 2048.15  23
  -3   4   1 7827.83 463.543  22
  -3  -4  -1 7119.01 399.536  21
  -3   4   1 6657.68 301.785   5
  -3  -4  -1 7063.75 401.752   2
   3  -4   1 6636.57 284.150   7
   3  -4   1 6454.42 382.528   1
   3   4  -1 6114.32 423.956  23
   3  -4   1 7314.48 435.267  20
  -3   4   1 5880.57 250.796  23
  -3  -4   0 75596.7 2098.06  21
  -3   4   0 73609.2 2130.23  21
   3  -4   0 73762.7 2172.63  20
  -3   4   0 71089.8 1934.03   5
  -3  -4   0 72985.1 2122.40   2
  -3   4   0 73745.4 2198.46  22
   3  -4   0 73594.1 2073.00   1
   3  -4   0 72508.9 1905.60   7
  -3   4   0 65807.3 1917.30  23
   3   4   0 76512.6 2215.64  23
  -3  -4   1 7064.03 381.106  21
  -3   4  -1 6945.08 305.787   5
  -3  -4   1 6663.83 413.427   2
  -3   4  -1 6461.21 391.101  21
   3  -4  -1 6947.22 279.479   7
   3  -4  -1 6788.40 362.730   1
   3   4   1 7046.89 460.416  23
  -3   4  -1 6402.99 320.557  23
   3   4   2 67894.6 2111.75  23
  -3   4  -2 68260.9 1978.10  21
  -3  -4   2 68305.0 1928.50  21
  -3   4  -2 66144.7 1807.08   5
  -3  -4   2 68374.9 2048.09   2
   3  -4  -2 66588.7 1762.96   7
   3  -4  -2 65205.0 1880.03   1
  -3   4  -3 39349.4 1269.26  21
  -3   4  -3 38719.0 1123.21   5
  -3  -4   3 41402.9 1373.13   2
  -3  -4   3 38674.0 1213.13  21
   3  -4  -3 39461.8 1172.30   1
   3   4   3 38737.7 1145.40   6
   3   4   3 39156.9 1227.77   4
   3   4   3 39358.5 1407.00  23
  -3   4  -4 23278.7 836.641  21
  -3  -4   4 21499.5 766.381  21
  -3   4  -4 21658.2 693.953   5
  -3  -4   4 22051.1 920.130   2
   3   4   4 21608.8 800.316   4
   3  -4  -4 22250.9 930.201  20
   3   4   4 22501.9 732.070   6
   3   4   4 23657.1 983.170  23
  -3  -4   5 20670.8 745.813  21
   3  -4  -5 23473.4 962.230  20
  -3  -4   5 21714.3 928.732   2
   3   4   5 22106.4 817.150   4
   3   4   5 21927.6 967.271  23
   3   4   5 22141.8 728.469   6
  -3   4  -5 21995.6 819.831  21
  -3  -4   6 17361.9 816.590   2
   3  -4  -6 16780.1 803.234  20
   3   4   6 16572.7 693.993   4
  -3   4  -6 17304.5 691.619  21
   3   4   6 16736.4 607.734   6
   3   4   6 17720.1 858.748  23
  -3   4  -7 23789.2 872.152  21
   3  -4  -7 25740.1 1053.63  20
  -3  -4   7 22442.8 790.065  11
  -3  -4   7 24207.8 1037.40   2
   3   4   7 23849.0 905.418   4
   3   4   7 22807.1 806.327  13
   3   4   7 24341.6 799.783   6
  -3  -4   7 25930.9 1025.28   3
   3  -4  -8 38621.4 1436.86  20
   3   4   8 37956.6 1155.36   8
   3   4   8 40092.7 1318.33   4
  -3   4  -8 39511.8 1251.64  21
   3   4   8 36622.4 1178.56  13
  -3  -4   8 39497.2 1420.69   3
  -3  -4   8 35579.3 1150.68  11
   3  -4  -9 25455.5 1120.19  20
   3   4   9 26513.6 884.333   9
   3   4   9 25968.8 876.025   8
  -3  -4   9 26611.4 845.596  19
   3   4   9 28064.5 1042.65   4
   3   4   9 26575.0 871.966  15
  -3  -4   9 25674.9 875.423  11
  -3  -4   9 27224.6 1129.68   3
   3   4  10 9911.07 537.810   1
   3  -4 -10 11626.4 687.954  20
   3   4  10 10625.4 468.050   9
   3   4  10 10557.9 471.233   8
  -3  -4  10 10724.6 445.227  19
  -3  -4  10 9873.09 456.004  11
   3   4  10 11213.7 603.462   4
  -3  -4  10 10919.5 684.194   2
   3   4  10 10147.7 461.054  15
   3  -4 -11 7349.06 559.181  20
   3   4  11 7782.93 388.075   9
   3   4  11 7496.31 505.018   4
   3   4  11 7216.93 389.984   8
  -3  -4  11 7835.69 376.375  19
  -3  -4  11 8064.08 592.045   2
   3   4  11 7373.19 445.444   1
   3   4  11 8418.48 409.256  15
   3   4  11 7925.80 420.352  13
   3   4  12 5529.32 319.064   9
   3  -4 -12 5151.99 475.560  20
   3   4  12 4992.22 326.582   8
  -3  -4  12 5041.77 306.710  19
   3   4  12 5272.67 430.496   4
  -3  -4  12 5313.14 489.440   2
   3   4  12 5604.91 333.493  15
   3   4  12 5295.84 340.516  13
   3  -4 -13 91681.0 2900.66  20
   3   4  13 90640.4 2491.03   9
   3   4  13 90049.6 2543.70   8
  -3  -4  13 92638.9 2507.78  19
   3   4  13 93940.3 2819.53   4
  -3  -4  13 88748.2 2919.48   2
   3   4  13 89394.5 2535.03  15
   3   4  13 90022.3 2560.56  13
   3   4  14 16466.7 630.494   9
   3  -4 -14 17801.9 929.935  20
   3   4  14 16930.5 691.395   8
   3   4  14 16254.6 674.580   6
  -3  -4  14 15875.7 647.346  19
   3   4  14 17614.2 695.609  15
  -3  -4  14 17938.8 955.127   2
   3   4  14 17215.9 698.043  13
   3  -4 -15 19526.6 1014.26  20
   3   4  15 20524.9 724.957   9
   3   4  15 21220.3 806.526   8
  -3  -4  15 20537.4 769.875  19
   3   4  15 21023.7 809.529  15
  -3  -4  15 19964.9 1047.64   2
   3   4  15 21042.1 805.327  13
   3   4  15 21854.9 805.149  12
   3   4  15 21722.9 795.975   6
   3  -4 -16 6659.91 552.410  20
   3   4  16 7118.22 413.290   8
  -3  -4  16 6977.79 386.051  19
   3   4  16 7293.77 411.594  15
  -3  -4  16 7576.22 587.878   2
   3   4  16 7717.65 417.229  13
   3   4  16 7308.40 399.843  12
   3   4  16 6865.98 337.707   9
   3   4  16 7667.75 410.806   6
   3   4  17 1902.44 201.196   6
   3   4  17 1936.79 217.346   8
  -3  -4  17 1685.56 190.146  19
   3   4  17 2110.60 228.041  15
  -3  -4  17 1446.85 265.465   2
   3   4  17 1683.41 195.489  13
   3   4  17 2004.25 203.869  12
   3   4  18 16329.3 643.706   6
  -3  -4  18 16509.6 635.130  19
   3   4  18 16393.2 667.215  15
   3   4  18 16088.1 625.876  13
   3   4  18 15968.6 614.525  12
  -3  -4  19 984.616 143.775  19
   3   4  19 993.597 168.226  15
   3   4  19 925.621 134.713  13
  -3  -4  20 2232.67 188.760  19
   3   4  20 2283.67 206.110  15
  -3  -4  21 2463.88 178.695  19
   3   4  21 2549.44 201.225  15
   3   4  22 1059.24 128.530  15
   3   4  22 1200.60 131.282   8
   3   4  23 977.438 105.227   8
   3   4  23 1275.99 113.938  15
   3  -5  23 1166.68 95.2551   8
   3  -5  22 691.324 97.9630   8
   3  -5  21 1219.01 143.091   8
   3  -5  21 858.308 97.8752  19
   3  -5  20 3584.65 214.775  19
   3  -5  19 297.923 98.9684  19
   3  -5  18 3272.86 237.302  19
   3  -5  17 5911.70 334.991  19
   3  -5  17 6386.62 395.186   8
   3  -5  17 6053.21 323.495   7
   3  -5  16 2736.77 234.701  19
   3  -5  16 2676.98 267.060   8
   3  -5  16 3018.93 232.791   7
   3  -5  16 3372.86 410.746   1
   3  -5  15 2765.79 233.893  19
   3  -5  15 2819.75 274.981   8
   3  -5  15 2987.19 390.720   1
   3  -5  15 2549.77 206.122  15
   3  -5  15 2877.57 235.402   7
  -3  -5 -14 32556.9 1471.71  21
   3  -5  14 31253.9 1034.91  19
   3  -5  14 33507.7 1129.95   8
   3  -5  14 31586.3 1387.54   1
   3  -5  14 29790.1 987.765  15
   3  -5  14 31803.6 1046.76   7
  -3   5  13 9909.16 502.563  10
   3  -5  13 9693.46 459.297  19
  -3  -5 -13 10682.7 762.441  21
  -3   5  13 10775.4 667.592   4
   3  -5  13 10367.0 524.306   8
   3  -5  13 10249.3 484.081   7
   3  -5  13 10134.9 445.039  15
  -3   5  13 9879.12 451.772  17
   3   5 -13 10080.1 653.116  23
  -3   5  12 34279.6 1182.73  10
  -3  -5 -12 37864.0 1576.12  21
   3   5 -12 35034.2 1397.99  23
   3  -5  12 36796.8 1137.75  19
  -3   5  12 35167.3 1382.26   4
   3  -5  12 36487.5 1213.16   8
  -3   5  12 36193.2 1139.11  17
   3  -5  12 36577.6 1158.08   7
   3  -5  12 34204.9 1099.05  15
  -3   5  11 3603.66 288.374  10
  -3  -5 -11 4053.94 447.069  21
  -3   5  11 4203.85 282.240  17
   3  -5  11 4079.78 266.584  19
  -3   5  11 3813.88 368.409   4
   3  -5  11 3610.84 410.632   1
   3  -5  11 4145.41 284.487   7
   3   5 -11 4238.56 409.354  23
  -3  -5 -10 10097.4 687.356  21
  -3   5  10 9777.10 486.805  10
  -3   5  10 10294.2 470.811  17
   3  -5  10 9045.45 422.799  19
  -3   5  10 10806.3 617.684   4
   3  -5  10 9191.36 450.437   7
   3  -5  10 10761.4 696.439   1
   3   5 -10 10676.3 645.569  23
  -3  -5  -9 19110.9 960.151  21
   3  -5   9 16681.8 708.081   2
   3  -5   9 17338.7 905.010   1
   3  -5   9 18132.3 641.827  19
  -3   5   9 20229.4 864.666   4
  -3   5   9 17044.8 699.019  10
   3   5  -9 17854.1 871.902  23
  -3   5   8 36363.0 1193.84  10
  -3  -5  -8 35407.2 1439.15  21
   3  -5   8 40045.0 1422.85  20
   3  -5   8 36876.8 1111.50  19
  -3   5   8 37862.5 1339.82   4
   3  -5   8 36731.5 1151.59   7
   3  -5   8 37088.8 1430.72   1
   3   5  -8 37507.6 1411.99  23
  -3   5   7 40478.9 1483.91  22
  -3  -5  -7 39760.0 1480.77  21
   3  -5   7 41697.3 1490.58   1
   3  -5   7 39105.0 1434.04  20
  -3   5   7 38764.8 1359.77   4
   3  -5   7 38781.3 1190.97   7
   3   5  -7 36630.2 1425.93  23
  -3   5   6 37835.4 1409.85  22
  -3   5   6 35131.8 1156.41  10
  -3  -5  -6 37128.3 1380.37  21
   3  -5   6 35544.6 1153.26  14
   3  -5   6 37063.1 1357.79  20
   3  -5   6 38081.5 1382.46   1
  -3   5   6 38109.0 1291.17   4
   3  -5   6 36995.7 1125.55   7
   3   5  -6 36695.5 1374.06  23
  -3   5   5 13013.0 696.642  22
  -3   5   5 12553.9 531.129  10
  -3  -5  -5 11890.6 660.052  21
   3  -5   5 12983.0 673.505  20
  -3  -5  -5 12389.2 552.619   2
  -3   5   5 13184.9 615.793   4
   3  -5   5 12587.3 497.487   7
   3  -5   5 12725.0 672.888   1
   3   5  -5 12829.1 687.528  23
  -3   5   4 8132.29 398.937  10
  -3  -5  -4 8827.35 518.809  21
  -3  -5  -4 7788.30 438.705   2
  -3   5   4 9494.67 572.159  22
   3  -5   4 8502.88 523.183  20
   3   5  -4 8278.26 533.268  23
  -3   5   4 8437.05 467.950   4
   3  -5   4 9004.41 382.489   7
   3  -5   4 9133.41 530.095   1
  -3  -5  -3 1558.33 214.840  21
   3  -5   3 1191.01 209.619  20
  -3   5   3 1584.12 241.274  22
   3  -5   3 1314.13 139.164   7
   3   5  -3 1331.14 226.521  23
   3  -5   3 1467.11 163.767  14
   3  -5   3 1687.33 232.035   1
  -3  -5  -3 1451.41 190.213   2
  -3  -5  -2 8607.35 483.178  21
  -3  -5  -2 9177.78 498.610   2
   3  -5   2 9210.02 543.077  20
  -3   5   2 8279.81 536.563  22
   3  -5   2 9102.14 375.259   7
   3  -5   2 8423.89 483.818   1
   3   5  -2 9180.90 556.010  23
  -3  -5  -1 6473.60 395.014  21
  -3  -5  -1 7380.90 444.415   2
  -3   5   1 7031.38 487.848  22
   3  -5   1 6715.09 305.697   7
   3   5  -1 7142.03 488.291  23
   3  -5   1 6510.35 454.401  20
   3  -5   1 6764.91 407.483   1
  -3  -5   0 21264.8 798.133  21
  -3  -5   0 21982.0 887.016   2
   3  -5   0 21755.2 677.134   7
  -3   5   0 20674.0 927.130  22
  -3  -5   0 22460.7 920.975   3
   3  -5   0 20755.4 803.113   1
  -3   5   0 19345.4 697.106  23
   3   5   0 21378.6 943.908  23
  -3  -5   1 6006.51 350.532  21
  -3  -5   1 6479.19 439.803   2
  -3   5  -1 6521.09 343.732  23
   3  -5  -1 6371.92 281.852   7
  -3  -5   1 6888.43 452.634   3
   3  -5  -1 6072.51 355.553   1
   3   5   1 6529.50 475.914  23
  -3  -5   2 8433.58 409.319  21
   3  -5  -2 9325.79 558.672  20
  -3  -5   2 10145.7 565.485   2
  -3   5  -2 8914.44 440.527  23
   3  -5  -2 8638.05 338.096   7
  -3  -5   2 8930.55 531.083   3
   3   5   2 8846.22 574.894  23
   3  -5  -2 8536.90 413.671   1
  -3  -5   3 1293.26 143.883  21
   3  -5  -3 1545.81 231.246  20
   3   5   3 1274.18 145.428   9
   3   5   3 1531.56 252.016  23
   3   5   3 1347.88 144.800   6
  -3  -5   3 1191.09 199.324   3
  -3  -5   3 1729.50 248.183   2
  -3   5  -3 1317.27 177.649  23
  -3   5  -4 8507.74 439.029  21
   3  -5  -4 8967.77 570.341  20
   3   5   4 8545.14 395.460   9
  -3  -5   4 8703.75 557.598   2
   3   5   4 8847.33 480.586   4
   3   5   4 8746.39 397.479  13
  -3  -5   4 9020.31 544.985   3
   3   5   4 9393.27 599.614  23
  -3   5  -4 8571.11 474.261  23
   3  -5  -5 12469.4 690.743  20
   3   5   5 12071.5 474.558   8
  -3  -5   5 12050.2 679.555   2
  -3   5  -5 11988.9 531.918  21
   3   5   5 11302.3 703.111  23
   3   5   5 11365.6 580.781   4
   3   5   5 11870.6 495.610  13
   3   5   5 12371.5 502.337   9
  -3  -5   5 12840.0 670.080   3
   3  -5  -6 36262.0 1394.97  20
   3   5   6 35782.5 1102.18   8
  -3  -5   6 38411.5 1425.88   2
   3   5   6 35589.3 1262.25   4
   3   5   6 35973.9 1138.32  13
  -3  -5   6 36051.8 1350.88   3
   3   5   6 37001.6 1463.40  23
   3   5   7 37438.8 1153.99   8
   3  -5  -7 38687.2 1465.45  20
  -3  -5   7 38979.2 1131.37  19
  -3  -5   7 36951.2 1457.57   2
   3   5   7 38685.5 1337.64   4
   3   5   7 36225.6 1167.06   9
   3   5   7 37389.8 1187.50  13
  -3  -5   7 38144.3 1415.94   3
   3  -5  -8 39729.6 1491.01  20
   3   5   8 38242.4 1175.66   8
  -3  -5   8 37921.0 1140.81  19
   3   5   8 37069.6 1347.78   4
   3   5   8 37405.6 1186.13   9
   3   5   8 37535.3 1202.15  13
  -3  -5   8 37687.0 1446.51   3
   3   5   9 17945.8 827.363   4
   3  -5  -9 17859.6 913.427  20
   3   5   9 16934.9 670.013   9
   3   5   9 18454.2 678.019   8
  -3  -5   9 18668.7 650.114  19
   3   5   9 16415.2 631.857  15
   3   5   9 17923.1 699.036  13
  -3  -5   9 17707.2 884.603   3
   3  -5 -10 11190.0 702.531  20
  -3  -5  10 10401.0 698.409   2
   3   5  10 9226.31 458.077   8
  -3  -5  10 10574.3 455.015  19
   3   5  10 10238.1 603.038   4
   3   5  10 9977.83 470.552   9
   3   5  10 10128.7 448.993  15
   3   5  10 10252.0 475.697   6
   3   5  11 4919.68 307.445   9
   3  -5 -11 4219.23 432.859  20
   3   5  11 4574.19 309.657   8
  -3  -5  11 3934.33 268.802  19
   3   5  11 3837.82 373.813   4
  -3  -5  11 4387.64 269.010  18
  -3  -5  11 3638.95 419.696   2
   3   5  11 4424.33 287.778  15
   3   5  11 4728.75 306.065   6
   3   5  12 36779.3 1165.47   9
   3  -5 -12 35477.7 1477.10  20
   3   5  12 36681.3 1190.60   8
  -3  -5  12 37146.8 1159.23  19
   3   5  12 36493.9 1404.18   4
  -3  -5  12 35436.1 1514.31   2
   3   5  12 36026.5 1157.67  15
   3   5  12 35951.4 1206.06  13
   3   5  12 35920.7 1178.68   6
   3   5  13 10340.4 476.451   9
   3  -5 -13 10527.1 696.662  20
   3   5  13 10674.6 509.313   8
  -3  -5  13 10623.7 485.347  19
   3   5  13 9825.45 643.192   4
  -3  -5  13 9755.82 705.414   2
   3   5  13 10507.2 487.593  15
   3   5  13 10881.4 525.440  13
   3   5  13 9882.78 507.414  12
   3   5  13 10284.8 500.340   6
   3   5  14 32219.0 1077.77   6
   3   5  14 31116.7 1033.43   9
   3  -5 -14 34404.5 1399.70  20
   3   5  14 32124.5 1090.00   8
  -3  -5  14 32742.2 1066.51  19
   3   5  14 31895.1 1067.38  15
  -3  -5  14 34850.5 1451.24   2
   3   5  14 31688.1 1319.18   4
   3   5  14 32640.5 1110.44  13
   3   5  14 30341.4 1089.29  12
   3  -5 -15 2339.71 340.513  20
   3   5  15 2798.81 255.862   8
  -3  -5  15 2732.14 233.281  19
   3   5  15 2809.65 244.588  15
   3   5  15 2977.83 227.564   9
   3   5  15 2413.40 240.950  13
   3   5  15 2653.04 249.407  12
   3   5  15 2948.78 251.462   6
  -3  -5  15 2561.48 358.722   2
  -3  -5  16 3084.11 250.526  19
  -3  -5  16 2499.85 345.992   2
   3   5  16 2937.68 262.514   8
   3   5  16 2774.58 240.199  15
   3   5  16 2900.07 251.802  13
   3   5  16 3042.97 256.788  12
   3   5  16 3428.77 263.511   6
  -3  -5  17 6415.41 354.700  19
   3   5  17 6662.12 369.277  15
   3   5  17 6814.23 382.877   8
   3   5  17 6050.69 356.427  13
   3   5  17 6240.97 358.645  12
   3   5  17 6653.65 363.854   6
   3   5  18 3483.29 248.235   6
   3   5  18 3351.89 263.586   8
  -3  -5  18 3214.45 239.487  19
   3   5  18 3334.93 248.148  15
   3   5  18 3491.44 249.984  13
   3   5  18 3238.89 238.505  12
  -3  -5  19 365.853 104.941  19
   3   5  19 400.195 110.770  15
   3   5  19 322.697 92.1538  12
  -3  -5  20 3914.41 230.711  19
   3   5  20 3951.31 244.601  15
   3   5  21 1141.33 127.834  15
   3   5  22 591.158 91.8012   8
   3   5  22 533.870 88.2395  15
   3  -6  22 284.608 61.9261   8
   3  -6  21 1064.69 121.463   8
   3  -6  20 679.386 90.3750  19
   3  -6  19 2583.02 181.241  19
   3  -6  18 1018.78 137.031  19
   3  -6  17 775.168 132.703  19
   3  -6  17 804.928 159.916   8
   3  -6  16 88.3341 97.0695  19
   3  -6  16 266.286 132.523   8
   3  -6  16 263.563 102.490   7
  -3  -6 -15 13279.4 849.086  21
   3  -6  15 11963.8 517.665  19
   3  -6  15 11955.1 574.762   8
   3  -6  15 12730.7 534.500   7
  -3  -6 -14 13683.1 883.990  21
   3  -6  14 13996.2 580.644  19
  -3   6  14 13207.6 782.719   4
   3  -6  14 14967.9 654.511   8
  -3   6  14 13617.8 552.403  17
  -3   6  14 14369.2 627.612  10
   3  -6  14 14363.8 598.339   7
  -3   6  13 17135.3 717.753  10
  -3  -6 -13 18322.7 1016.95  21
   3  -6  13 16971.8 660.678  19
  -3   6  13 16308.7 866.379   4
   3  -6  13 17539.8 733.051   8
   3  -6  13 17575.8 689.244   7
   3   6 -13 15563.1 883.060  23
  -3   6  13 17114.5 657.672  17
  -3   6  12 36076.4 1215.95  10
  -3  -6 -12 36419.1 1548.62  21
   3  -6  12 33771.4 1127.29  19
  -3   6  12 34539.7 1395.68   4
   3  -6  12 36552.2 1225.51   8
  -3   6  12 35673.9 1156.10  17
   3  -6  12 35719.1 1510.99   1
   3  -6  12 36313.1 1170.39   7
   3   6 -12 37332.2 1484.37  23
  -3   6  11 28962.9 1033.93  10
  -3  -6 -11 31198.3 1373.17  21
   3  -6  11 27765.5 955.705  19
   3  -6  11 27967.5 1291.21   1
  -3   6  11 28141.6 1204.00   4
  -3   6  11 29178.2 997.652  17
   3  -6  11 30012.2 1005.82   7
   3   6 -11 29144.5 1276.57  23
  -3   6  10 7569.58 438.501  10
  -3  -6 -10 8351.59 626.129  21
   3  -6  10 7796.27 605.210   1
   3  -6  10 7853.24 390.659  19
  -3   6  10 8034.56 554.162   4
  -3   6  10 7774.90 421.602  17
   3   6 -10 6608.90 550.437  23
  -3  -6  -9 12528.7 767.331  21
   3  -6   9 11324.7 596.384   2
   3  -6   9 13104.6 778.075   1
   3  -6   9 12617.4 513.965  19
  -3   6   9 11795.7 683.231   4
   3   6  -9 12124.5 751.070  23
   3  -6   8 13300.5 666.309   2
  -3  -6  -8 14100.3 801.631  21
   3  -6   8 13771.0 791.044   1
   3  -6   8 13956.6 550.301  19
  -3   6   8 14622.0 752.901   4
   3  -6   8 14450.8 588.754   7
   3   6  -8 14738.0 818.435  23
  -3   6   7 68365.3 2038.24  10
  -3  -6  -7 69517.8 2299.72  21
   3  -6   7 75105.6 2354.75   1
   3  -6   7 71614.4 2349.32  20
   3  -6   7 68549.0 1946.12  19
  -3   6   7 69114.5 2210.97   4
   3  -6   7 71031.0 1995.75   7
   3  -6   7 72082.6 2046.07  14
   3   6  -7 68912.1 2327.18  23
  -3   6   6 1208.11 173.638  10
  -3  -6  -6 905.672 207.136  21
   3  -6   6 1535.91 266.209  20
  -3   6   6 1142.36 233.490  22
   3  -6   6 1309.26 164.249   7
  -3   6   6 940.244 183.961   4
   3  -6   6 1159.05 173.794  14
   3  -6   6 1009.90 217.360   1
   3   6  -6 1128.24 238.013  23
  -3   6   5 3555.50 381.942  22
  -3   6   5 3272.11 260.834  10
  -3  -6  -5 3435.25 338.062  21
   3  -6   5 3918.38 372.968   1
   3  -6   5 3561.00 372.968  20
  -3  -6  -5 3319.09 290.745   2
  -3   6   5 3540.62 324.445   4
   3  -6   5 3761.41 255.965   7
   3   6  -5 3585.52 385.927  23
  -3   6   4 18050.5 900.092  22
   3  -6   4 17831.9 828.301   1
   3  -6   4 17671.1 869.493  20
  -3  -6  -4 16675.6 748.313   2
  -3   6   4 16748.2 673.209  10
  -3  -6  -4 17235.4 799.186  21
  -3   6   4 17134.3 788.313   4
   3  -6   4 17311.9 633.714   7
   3  -6   4 17668.0 691.873  14
   3   6  -4 18045.6 894.360  23
  -3   6   3 3671.60 380.581  22
   3   6  -3 3080.49 207.767   9
  -3  -6  -3 2496.47 269.760   2
   3  -6   3 3463.55 231.366   7
   3  -6   3 2732.38 237.246  14
  -3   6   3 2706.60 231.028  10
   3  -6   3 3387.82 357.535  20
   3  -6   3 3025.57 307.655   1
  -3  -6  -3 3224.34 304.057  21
   3   6  -3 3224.97 358.737  23
  -3   6   2 2481.49 320.482  22
  -3  -6  -2 2820.64 273.329  21
   3   6  -2 2828.28 204.831   9
  -3  -6  -2 2311.28 268.885   2
  -3   6   2 2926.65 231.967  10
   3  -6   2 3020.75 209.445   7
   3  -6   2 2812.94 234.699  14
   3  -6   2 3078.43 334.081  20
   3   6  -2 2897.25 340.089  23
   3  -6   2 3321.22 308.019   1
  -3  -6  -1 1812.06 208.507  21
   3   6  -1 2025.00 180.099   9
   3  -6   1 2411.89 255.226   1
  -3  -6  -1 2229.39 269.397   2
  -3   6   1 2039.67 197.661  10
   3   6  -1 2855.55 340.898  23
   3  -6   1 2420.90 182.466   7
  -3  -6  -1 2815.76 309.823   3
   3  -6   1 2061.20 200.671  14
  -3   6   0 15162.9 599.971  10
  -3  -6   0 16348.5 653.371  21
   3   6   0 15397.7 589.492   9
   3  -6   0 15500.6 685.259   1
  -3  -6   0 16417.3 788.275   2
   3  -6   0 16592.4 572.312   7
   3  -6   0 16008.9 624.165  14
  -3  -6   0 16839.5 802.185   3
   3   6   0 17079.8 869.045  23
   3  -6  -1 2501.31 306.182  20
   3   6   1 2097.97 189.120   9
   3  -6  -1 2453.46 172.411   7
   3  -6  -1 1723.82 195.840   1
   3  -6  -1 1786.89 187.957  14
  -3  -6   1 2372.01 278.220   3
   3   6   1 2344.75 184.590  13
  -3  -6   1 1777.42 255.004   2
   3   6   1 2506.19 325.462  23
  -3   6  -1 2047.23 203.555  23
   3   6   2 2834.03 218.197   9
   3  -6  -2 2689.09 323.594  20
  -3  -6   2 2995.89 323.299   2
   3  -6  -2 2655.05 178.887   7
   3  -6  -2 2469.63 210.512  14
  -3  -6   2 2756.02 306.478   3
   3   6   2 2576.70 203.541  13
  -3   6  -2 2800.78 253.167  23
   3   6   2 2201.74 323.651  23
   3   6   3 3234.31 374.910  23
  -3   6  -3 2476.18 252.571  23
   3   6   3 3050.27 228.815   9
   3  -6  -3 3532.72 373.273  20
  -3  -6   3 3275.34 348.106   2
   3  -6  -3 2819.37 218.759  14
   3   6   3 3351.34 236.374  13
  -3  -6   3 2850.55 317.504   3
  -3   6  -3 2907.18 353.248  22
   3   6   4 18077.7 667.538   9
   3  -6  -4 19049.5 914.277  20
   3   6   4 16866.4 626.578   8
  -3  -6   4 17304.3 878.264   2
  -3   6  -4 18382.2 795.705  23
   3   6   4 18156.2 805.019   4
   3  -6  -4 15847.3 626.879  14
   3   6   4 18049.5 664.271  13
  -3  -6   4 19136.3 871.008   3
   3   6   4 18428.7 941.393  23
   3   6   5 3646.46 256.539   9
   3  -6  -5 3058.46 361.640  20
   3   6   5 3349.08 238.982   8
  -3  -6   5 4032.33 397.303   2
  -3   6  -5 3187.36 232.530  17
   3   6   5 3159.54 305.377   4
   3   6   5 3696.65 257.835  13
  -3  -6   5 3164.81 336.289   3
  -3   6  -5 3225.98 316.941  23
  -3  -6   6 1045.04 218.336   3
   3  -6  -6 507.924 187.592  20
   3   6   6 1226.97 158.483   8
   3   6   6 630.718 166.546   4
   3   6   6 1419.56 169.599   6
   3   6   6 1054.13 157.216  13
  -3  -6   6 914.996 220.720   2
  -3   6  -6 936.620 189.181  23
   3  -6  -7 70640.1 2348.02  20
   3   6   7 69095.6 1975.34   8
  -3  -6   7 68161.8 1950.13  19
  -3  -6   7 73697.5 2410.55   2
   3   6   7 70986.4 2220.06   4
   3   6   7 69913.3 2012.97  13
   3   6   7 70114.9 2003.31   6
  -3  -6   7 68677.3 2276.30   3
  -3   6  -7 73224.5 2268.67  23
   3   6   8 14375.1 594.710   9
  -3  -6   8 13948.7 555.956  19
  -3  -6   8 12777.4 801.294   2
   3   6   8 14960.8 757.310   4
   3   6   8 14329.3 602.324  13
   3   6   8 13439.3 580.362   6
   3  -6  -8 13692.4 802.346  20
  -3   6  -8 11663.1 706.543  23
  -3  -6   8 15643.1 813.451   3
   3   6   8 14905.0 586.502   8
   3   6   9 11797.2 536.005   9
  -3  -6   9 12404.6 735.372   3
  -3  -6   9 12125.2 506.406  19
   3   6   9 12016.3 681.983   4
   3  -6  -9 11065.1 721.108  20
   3   6   9 10840.9 510.507   8
   3   6   9 11756.5 551.347  13
   3   6   9 12163.4 536.307   6
  -3   6  -9 12621.5 732.122  23
   3   6  10 7934.16 416.902   9
   3  -6 -10 7807.31 599.529  20
  -3   6 -10 6806.58 550.844  23
   3   6  10 8032.23 415.293   8
  -3  -6  10 7591.62 387.369  19
  -3  -6  10 7803.50 392.964  18
   3   6  10 7755.24 540.475   4
  -3  -6  10 7109.47 599.720   2
   3   6  10 7420.25 426.014  13
   3   6  10 7770.30 416.644   6
   3   6  11 28806.8 999.744   9
   3  -6 -11 29838.2 1306.48  20
  -3  -6  11 29340.4 983.374  19
  -3  -6  11 28294.5 958.107  18
   3   6  11 29778.2 1227.29   4
   3   6  11 30245.7 1015.22   8
  -3  -6  11 28174.7 1334.95   2
   3   6  11 31034.3 1018.05   6
  -3   6 -11 29635.6 1293.60  23
   3  -6 -12 37827.0 1503.80  20
   3   6  12 35580.4 1185.70   8
  -3  -6  12 34401.7 1148.65  19
   3   6  12 37025.0 1429.46   4
  -3  -6  12 35163.9 1113.21  18
  -3   6 -12 39596.4 1536.28  23
  -3  -6  12 34793.8 1531.09   2
   3   6  12 34709.7 1121.68  15
   3   6  12 38688.1 1194.91   6
   3   6  12 37899.9 1183.23   9
   3   6  13 16619.1 662.904   9
   3  -6 -13 17172.5 919.783  20
   3   6  13 17069.2 689.942   8
  -3  -6  13 16757.6 664.845  19
   3   6  13 17538.2 896.230   4
  -3  -6  13 16491.9 957.855   2
   3   6  13 16135.3 632.890  15
   3   6  13 17322.4 713.547  13
   3   6  13 18045.8 723.487  12
  -3   6 -13 17200.9 944.604  23
   3   6  13 17572.6 685.822   6
   3  -6 -14 13521.6 796.828  20
   3   6  14 14234.2 610.975   8
  -3  -6  14 13951.3 588.597  19
   3   6  14 13778.4 794.270   4
  -3  -6  14 13611.7 852.592   2
   3   6  14 14678.2 573.011  15
   3   6  14 15098.6 638.917  13
  -3   6 -14 13217.8 852.697  23
   3   6  14 14421.1 632.133  12
   3   6  14 13616.7 589.445   6
   3   6  15 12406.5 557.528   8
  -3  -6  15 11904.9 525.941  19
   3   6  15 12418.4 513.906  15
  -3  -6  15 12017.2 783.579   2
   3   6  15 12123.8 559.463  13
   3   6  15 11653.9 552.767  12
  -3   6 -15 12158.0 808.020  23
   3   6  15 12430.3 537.731   6
   3   6  16 330.622 106.308   6
  -3  -6  16 209.656 103.571  19
   3   6  16 158.043 121.084   8
   3   6  16 289.824 108.523  15
   3   6  16 325.545 129.324  13
   3   6  16 190.519 125.355  12
   3   6  17 713.680 128.651  10
  -3  -6  17 1013.95 147.854  19
   3   6  17 1029.48 170.922   8
   3   6  17 743.151 127.895  15
   3   6  17 922.383 154.048  12
   3   6  17 845.774 136.425   6
  -3  -6  18 1292.21 146.863  19
   3   6  18 1208.75 163.093   8
   3   6  18 1122.33 141.329  15
   3   6  18 1248.21 156.081  12
  -3  -6  19 2994.71 196.576  19
   3   6  19 2782.51 189.464  15
   3   6  19 2545.24 185.462  12
   3   6  20 873.283 102.486  15
   3   6  21 886.432 83.6939  15
   3  -7  21 2810.31 152.933   8
   3  -7  19 788.823 94.2364  19
   3  -7  18 2129.21 162.363  19
   3  -7  17 232.252 89.3388  19
   3  -7  17 311.680 115.094   8
   3  -7  16 918.396 134.041  19
   3  -7  16 887.213 158.122   8
   3  -7  15 1576.80 170.517  19
   3  -7  15 1959.98 219.604   8
   3  -7  14 3430.75 252.469  19
   3  -7  14 3472.46 294.845   8
  -3   7  14 3593.38 246.390  17
   3  -7  14 3499.48 265.113   7
  -3   7  13 669.280 157.822  10
  -3  -7 -13 658.302 205.179  21
   3  -7  13 722.457 140.201  19
  -3   7  13 571.374 131.665  17
   3  -7  13 682.339 166.885   8
   3  -7  13 533.312 137.335   7
   3  -7  13 729.038 228.911   1
   3   7 -13 809.057 216.185  23
  -3  -7 -12 22319.8 1136.53  21
   3   7 -12 22378.2 1115.71  23
   3  -7  12 22682.7 813.452  19
  -3   7  12 22394.4 1050.95   4
   3  -7  12 23971.1 894.428   8
  -3   7  12 23670.0 843.773  17
  -3   7  12 21771.6 875.215  10
   3  -7  12 22948.1 842.354   7
   3  -7  12 24372.7 1174.32   1
  -3  -7 -11 40921.2 1656.02  21
   3  -7  11 41837.1 1292.40  19
  -3   7  11 40683.3 1568.60   4
  -3   7  11 42266.0 1336.37  17
   3   7 -11 41045.6 1656.56  23
  -3   7  11 41490.3 1379.04  10
   3  -7  11 42781.2 1695.45   1
  -3  -7 -10 70848.8 2406.17  21
   3  -7  10 69186.2 1987.58  19
  -3   7  10 68543.5 2301.78   4
   3  -7  10 71809.3 2436.55   1
   3   7 -10 71372.0 2438.15  23
  -3  -7  -9 12849.2 769.724  21
   3  -7   9 11518.7 641.638   2
   3  -7   9 12571.5 526.772  19
  -3   7   9 11128.0 694.463   4
   3  -7   9 11684.2 764.918   1
   3  -7   9 12474.6 557.979   7
   3   7  -9 11894.1 780.974  23
  -3  -7  -8 12374.6 756.960  21
   3  -7   8 12544.5 683.258   2
   3  -7   8 13172.1 547.919  19
  -3   7   8 13678.8 760.494   4
  -3   7   8 13154.8 616.059  10
   3  -7   8 14368.4 833.903   1
   3  -7   8 13956.0 588.253   7
   3   7  -8 14329.1 845.422  23
  -3  -7  -7 18133.5 916.397  21
   3  -7   7 16707.4 947.937  20
   3  -7   7 18520.0 687.377  19
  -3   7   7 19287.4 770.799  10
   3  -7   7 19155.3 966.468   1
  -3   7   7 19195.5 919.607   4
   3  -7   7 20157.3 737.880   7
   3  -7   7 18652.2 761.480  14
   3   7  -7 17034.7 964.142  23
  -3   7   6 18252.5 977.101  22
  -3   7   6 17466.7 721.411  10
  -3  -7  -6 18408.3 876.341  21
   3  -7   6 18211.5 965.862  20
  -3   7   6 15229.4 814.366   4
   3  -7   6 17082.9 671.755   7
   3   7  -6 17428.5 948.779  23
   3  -7   6 17893.7 906.524   1
  -3   7   5 8189.91 627.394  22
  -3   7   5 8191.37 445.787  10
  -3  -7  -5 7373.75 515.904  21
   3  -7   5 8407.82 620.818  20
   3  -7   5 7820.75 561.306   1
  -3   7   5 7480.71 525.116   4
   3  -7   5 7891.16 402.058   7
   3   7  -5 7998.63 619.175  23
  -3   7   4 5072.13 484.530  22
  -3  -7  -4 4203.85 362.369  21
  -3   7   4 4166.97 307.603  10
   3  -7   4 4593.24 454.799  20
  -3  -7  -4 4149.74 368.015   2
   3  -7   4 3997.02 385.517   1
  -3   7   4 3944.53 378.569   4
   3  -7   4 4788.60 295.048   7
   3  -7   4 5580.49 351.945  14
   3   7  -4 5016.83 475.496  23
  -3   7   3 5763.76 347.089  10
   3   7  -3 5418.41 499.963  23
  -3  -7  -3 4869.87 409.704   2
   3  -7   3 5256.02 426.951   1
   3  -7   3 5333.16 305.158   7
  -3  -7  -3 4999.24 441.051   3
   3  -7   3 5258.83 349.186  14
  -3  -7  -3 4739.94 364.914  21
   3  -7   3 4764.22 459.845  20
  -3   7   2 4253.02 292.931  10
   3   7  -2 4316.68 269.133   9
  -3  -7  -2 3524.30 360.085   2
   3  -7   2 3804.53 353.091   1
   3   7  -2 4724.67 466.672  23
   3  -7   2 4269.82 269.577   7
  -3  -7  -2 3430.18 369.777   3
   3  -7   2 3834.72 294.058  14
  -3   7   1 2318.58 221.614  10
  -3  -7  -1 2464.56 305.335   2
   3   7  -1 2741.86 217.037   9
   3  -7   1 3111.48 304.358   1
   3  -7   1 3217.88 221.936   7
   3  -7   1 2803.57 250.671  14
  -3  -7  -1 2507.31 312.641   3
   3   7  -1 2791.69 372.215  23
  -3   7   0 23763.2 849.279  10
   3   7   0 24051.4 840.773   9
   3  -7   0 25230.2 1136.67  20
  -3  -7   0 24141.6 1083.11   2
   3   7   0 23020.5 1154.26  23
   3  -7   0 24990.6 812.214   7
   3  -7   0 24666.2 881.477  14
  -3  -7   0 26625.7 1100.86   3
   3   7   1 3073.08 239.667   9
   3  -7  -1 2188.20 320.142  20
  -3  -7   1 2513.82 323.154   2
  -3   7  -1 3065.60 388.792  22
   3  -7  -1 2960.96 207.195   7
   3  -7  -1 2667.74 239.281  14
   3   7   1 2541.19 208.931  13
  -3  -7   1 3014.34 330.664   3
   3   7   1 2672.26 212.819  12
   3   7   1 3293.47 408.635  23
   3   7   2 4224.46 455.034  23
   3  -7  -2 3778.00 408.656  20
  -3  -7   2 4543.59 434.436   2
  -3   7  -2 5435.65 492.950  22
   3  -7  -2 4535.68 299.099  14
   3   7   2 4183.77 281.941   9
   3   7   2 4181.68 283.872   6
   3   7   2 4507.76 281.091  13
  -3  -7   2 4662.91 411.836   3
   3   7   2 3909.98 267.693  12
  -3   7  -2 4198.29 337.457  23
   3   7   3 5629.65 330.342   9
  -3   7  -3 5912.37 531.136  22
   3  -7  -3 4664.65 455.525  20
  -3  -7   3 5314.93 482.274   2
   3  -7  -3 5072.35 314.340  14
   3   7   3 5199.19 312.279  13
   3   7   3 5189.74 322.676   6
  -3  -7   3 5537.57 446.871   3
   3   7   3 5000.25 310.102  12
  -3   7  -3 5104.87 390.285  23
   3   7   3 4966.53 495.613  23
  -3   7  -4 4255.07 465.461  22
   3   7   4 4781.79 309.487   9
  -3  -7   4 3835.96 419.175   2
   3   7   4 5000.35 414.912   4
   3  -7  -4 4392.92 291.278  14
   3   7   4 4747.68 303.488  13
   3   7   4 5111.63 317.822   6
  -3  -7   4 5285.23 437.367   3
   3   7   4 4814.91 306.863  12
  -3   7  -4 4444.60 374.374  23
   3  -7  -4 5373.43 485.623  20
   3   7   5 9465.89 450.375   9
  -3   7  -5 8692.30 661.232  22
   3  -7  -5 8121.03 615.637  20
  -3   7  -5 7990.82 408.500  17
   3   7   5 8046.60 548.008   4
  -3  -7   5 8101.88 617.829   2
   3   7   5 8395.81 431.192  13
   3   7   5 8649.83 432.499   6
  -3  -7   5 8945.88 585.650   3
   3   7   5 8319.37 427.565  12
  -3   7  -5 8532.83 543.110  23
   3   7   6 17175.3 690.839   9
   3  -7  -6 18329.6 952.527  20
  -3  -7   6 17246.2 953.625   2
  -3   7  -6 17159.5 984.567  22
   3   7   6 18149.4 870.331   4
   3   7   6 17407.0 693.323  13
   3   7   6 18128.9 695.398   6
  -3  -7   6 17636.5 882.111   3
   3   7   6 16608.1 685.274  12
  -3   7  -6 16684.0 843.723  23
  -3   7  -7 17131.8 893.449  23
   3  -7  -7 20405.3 1020.70  20
   3   7   7 19668.3 726.587   8
  -3  -7   7 17932.1 693.453  19
  -3  -7   7 18568.9 1017.13   2
   3   7   7 17873.9 1034.42  23
   3   7   7 20501.9 937.718   4
   3   7   7 18690.5 742.727  13
   3   7   7 20022.3 743.132   6
   3   7   7 19426.0 753.393  12
  -3  -7   7 20143.2 957.182   3
   3   7   8 15264.3 607.409   8
  -3  -7   8 13687.0 567.084  19
  -3  -7   8 14820.2 884.357   2
  -3  -7   8 13541.6 595.393  18
   3   7   8 13290.3 749.481   4
   3   7   8 13778.8 608.708  13
   3   7   8 13534.0 590.323   6
   3  -7  -8 13349.1 823.114  20
   3   7   8 13870.1 615.795  12
  -3   7  -8 13557.6 780.331  23
  -3  -7   8 13034.1 762.696   3
   3   7   9 13511.9 588.005   9
   3   7   9 13156.5 569.906   8
   3   7   9 12928.9 745.899   4
  -3  -7   9 13034.6 551.296  19
  -3  -7   9 13264.0 574.066  18
   3   7   9 14341.3 614.607  13
   3   7   9 11889.1 558.407   6
   3  -7  -9 14124.6 830.101  20
   3   7   9 12647.4 587.225  12
  -3   7  -9 11827.5 751.222  23
   3   7  10 72272.2 2050.74   9
   3   7  10 70979.5 2036.24   8
  -3  -7  10 73644.9 2019.41  19
  -3  -7  10 69067.4 2013.41  18
  -3  -7  10 72457.7 2501.68   2
   3   7  10 69696.4 2308.92   4
   3  -7 -10 63567.9 2353.58  20
   3   7  10 69933.5 2071.79  13
   3   7  10 69587.3 2027.78   6
   3   7  10 67806.0 2061.91  12
  -3   7 -10 72594.1 2390.46  23
   3   7  11 42480.6 1332.35   9
   3   7  11 41157.0 1321.21   8
  -3  -7  11 42729.7 1309.08  19
  -3  -7  11 40408.6 1282.41  18
  -3  -7  11 42924.0 1734.66   2
   3   7  11 40565.4 1569.80   4
   3   7  11 42631.3 1366.36  13
   3  -7 -11 42781.1 1650.68  20
   3   7  11 39224.9 1345.53  12
   3   7  11 43319.9 1328.66   6
  -3   7 -11 42652.7 1655.93  23
   3  -7 -12 21470.0 1074.12  20
   3   7  12 23310.9 842.017   8
  -3  -7  12 22454.8 814.342  19
  -3  -7  12 22924.2 787.516  18
   3   7  12 22022.2 1044.40   4
  -3  -7  12 20557.5 1126.29   2
   3   7  12 24336.5 842.249   6
  -3   7 -12 21425.2 1097.85  23
   3   7  13 650.426 132.681   6
  -3  -7  13 468.049 181.328   2
   3  -7 -13 484.622 164.654  20
  -3  -7  13 540.248 133.151  19
   3   7  13 983.166 167.597   8
   3   7  13 524.177 172.671   4
  -3   7 -13 655.432 213.921  23
   3   7  14 3740.47 279.334   8
  -3  -7  14 3226.44 250.889  19
   3   7  14 3881.43 295.673  12
   3   7  14 3682.73 260.936   6
   3   7  15 1782.67 198.062   8
  -3  -7  15 1602.33 182.090  19
   3   7  15 1824.28 183.655   6
   3   7  15 1956.73 207.555  12
  -3  -7  16 1374.21 159.385  19
   3   7  16 1031.17 163.941   8
   3   7  16 1223.25 155.620  10
   3   7  16 1045.02 161.523  12
   3   7  16 1070.87 138.550   6
   3   7  17 391.917 104.489  10
  -3  -7  17 315.459 87.9815  19
   3   7  17 448.899 120.731   8
   3   7  17 276.499 85.4025   6
   3   7  17 378.223 105.676  12
   3   7  18 2408.72 194.716   8
  -3  -7  18 2443.37 176.872  19
   3   7  18 2854.32 197.074  12
   3   7  19 936.601 111.698  12
   3  -8  20 1916.94 117.739   8
   3  -8  18 894.030 88.2204  19
   3  -8  17 7105.72 302.422  19
   3  -8  17 7735.24 364.969   8
   3  -8  16 9341.23 386.414  19
   3  -8  16 10065.6 451.235   8
   3  -8  15 5921.27 304.701  19
   3  -8  15 6328.40 361.944   8
   3  -8  14 2587.17 208.936  19
   3  -8  14 2813.94 254.496   8
   3  -8  13 2136.57 200.672  19
   3  -8  13 2867.32 256.555   8
  -3   8  13 2526.13 216.160  17
  -3   8  12 13874.5 629.965  10
   3  -8  12 14015.9 566.390  19
   3  -8  12 14565.3 634.258   8
  -3   8  12 14087.5 591.475  17
   3  -8  11 21192.5 1083.24   1
   3  -8  11 21112.5 755.398  19
  -3   8  11 20951.9 797.549  17
   3   8 -11 19757.4 1069.63  23
   3  -8  10 74.8408 155.075   1
   3  -8  10 80.1879 83.0810  19
  -3   8  10 82.9253 122.710  17
  -3  -8 -10-32.9807 108.054  21
  -3   8  10 31.2640 125.449   4
   3  -8  10 46.5560 117.050   7
   3   8 -10-39.3149 128.805  23
   3  -8   9 19098.2 700.218  19
  -3  -8  -9 17281.1 912.564  21
   3   8  -9 17399.8 1000.08  23
  -3   8   9 17912.3 763.381  10
   3  -8   9 19098.6 739.884   7
  -3   8   9 17825.1 923.877   4
   3  -8   9 18024.8 989.136   1
  -3   8   8 1731.75 228.971  10
   3  -8   8 1863.20 185.401  19
  -3   8   8 1669.69 285.790   4
   3  -8   8 1890.83 218.344   7
   3  -8   8 1418.01 234.278   2
   3  -8   8 1752.20 321.474   1
   3   8  -8 1622.41 308.816  23
   3  -8   7 20938.2 982.569   2
  -3   8   7 21413.5 861.490  10
   3  -8   7 21696.1 785.797  19
  -3  -8  -7 22483.3 789.508  18
  -3   8   7 21653.7 1025.08   4
   3  -8   7 22524.6 825.363   7
   3  -8   7 22905.3 1089.57   1
   3   8  -7 22047.7 1144.99  23
  -3   8   6 4295.54 328.103  10
   3  -8   6 3491.87 450.406  20
  -3  -8  -6 4301.27 293.898  18
  -3   8   6 4251.76 416.668   4
   3  -8   6 4318.50 306.593   7
   3  -8   6 4089.68 436.343   1
   3   8  -6 4450.38 489.511  23
  -3   8   5 9525.69 718.645  22
  -3   8   5 9328.69 493.260  10
   3  -8   5 10649.8 733.521  20
  -3   8   5 8902.08 610.448   4
  -3  -8  -5 8582.49 617.848   3
   3  -8   5 10092.9 474.424   7
   3  -8   5 9436.38 512.884  14
   3  -8   5 9131.10 626.292   1
   3   8  -5 9281.61 708.405  23
   3  -8   4 7256.70 615.912  20
   3   8  -4 8269.97 653.930  23
  -3   8   4 7139.60 536.867   4
  -3   8   4 7326.91 421.181  10
   3  -8   4 7877.03 406.779   7
   3  -8   4 7190.63 436.845  14
  -3  -8  -4 6532.39 527.181   3
   3  -8   4 6806.71 521.802   1
  -3   8   3 2546.33 248.051  10
  -3  -8  -3 2559.07 316.114   2
  -3   8   3 2741.67 333.739   4
   3  -8   3 2707.90 235.164   7
   3  -8   3 3037.21 276.999  14
  -3  -8  -3 3134.05 362.960   3
   3  -8   3 3098.34 340.555   1
   3   8  -3 2673.97 403.301  23
  -3   8   2 11335.4 532.922  10
  -3  -8  -2 10499.4 668.021   2
   3  -8   2 11767.9 504.176   7
   3  -8   2 11491.7 561.082  14
  -3  -8  -2 10113.1 662.211   3
   3   8  -2 12265.1 811.067  23
  -3   8   1 10186.4 730.222  22
  -3   8   1 10620.9 500.511  10
  -3  -8  -1 9092.54 635.881   2
   3   8  -1 9741.98 729.663  23
   3  -8   1 10383.9 524.735  14
  -3  -8  -1 10509.0 652.762   3
  -3   8   0 9694.58 710.660  22
   3  -8   0 9732.30 693.186  20
  -3  -8   0 9425.57 647.429   2
   3  -8   0 9773.24 500.603  14
  -3  -8   0 9434.98 618.607   3
   3   8   0 9181.01 711.216  23
  -3   8  -1 11061.6 759.663  22
   3  -8  -1 11000.6 742.052  20
  -3  -8   1 10940.6 712.011   2
   3  -8  -1 10756.7 524.581  14
   3   8   1 12061.7 528.926   6
  -3  -8   1 9509.23 633.899   3
   3   8   1 10479.0 469.252  12
   3   8   1 10296.2 761.386  23
   3  -8  -2 12653.0 790.899  20
  -3  -8   2 10472.6 716.984   2
  -3   8  -2 12064.0 797.057  22
   3  -8  -2 10874.2 528.559  14
   3   8   2 11438.4 531.001   6
  -3  -8   2 11272.5 680.797   3
   3   8   2 11556.9 506.132  12
   3   8   2 11615.1 522.636   9
   3   8   3 2726.70 245.054   9
   3  -8  -3 2817.09 393.594  20
  -3  -8   3 2665.68 372.671   2
   3   8   3 2540.76 322.147   4
   3  -8  -3 3253.67 259.214  14
   3   8   3 3356.66 262.600   6
  -3   8  -3 2186.51 370.560  22
  -3  -8   3 3022.27 348.481   3
   3   8   3 2908.55 243.211  12
  -3   8  -4 6873.26 602.187  22
   3  -8  -4 6808.59 578.757  20
   3   8   4 7613.62 408.422   9
  -3  -8   4 7973.88 622.468   2
   3   8   4 6852.63 527.601   4
   3   8   4 7161.42 395.671   6
  -3  -8   4 5758.73 490.213   3
   3   8   4 7176.83 393.588  12
  -3   8  -5 9399.41 712.211  22
   3  -8  -5 8611.47 665.230  20
  -3  -8   5 8535.83 672.645   2
  -3  -8   5 10169.4 502.799  18
  -3   8  -5 9254.03 450.322  17
   3   8   5 9045.00 612.240   4
   3   8   5 9605.61 469.735   6
   3   8   5 9023.59 460.216  12
  -3  -8   5 8807.07 594.895   3
  -3   8  -5 8590.72 575.968  23
   3   8   5 9501.65 472.444   9
   3   8   5 9498.57 722.853  23
  -3   8  -6 4982.13 526.868  22
   3  -8  -6 4724.44 482.401  20
  -3  -8   6 3761.75 449.097   2
  -3  -8   6 4529.60 328.759  18
   3   8   6 3785.90 399.185   4
   3   8   6 4550.18 309.160   6
   3   8   6 3956.08 499.045  23
   3   8   6 4526.16 313.516  12
  -3   8  -6 3846.65 392.175  23
  -3  -8   6 3735.32 388.356   3
   3   8   6 4347.71 313.761   9
  -3   8  -7 22970.7 1186.37  22
  -3  -8   7 23061.8 818.617  19
  -3  -8   7 22778.5 1178.76   2
  -3  -8   7 22650.8 860.325  18
   3   8   7 22138.1 1044.44   4
   3   8   7 22600.7 1192.92  23
   3   8   7 23381.1 859.684   9
   3   8   7 23657.9 849.937   6
   3   8   7 22780.5 856.281  12
   3  -8  -7 22974.5 1133.76  20
  -3  -8   7 21866.5 1035.08   3
  -3   8  -7 21076.2 1018.19  23
  -3   8  -8 1978.80 344.561  22
   3  -8  -8 1469.69 283.238  20
  -3  -8   8 1937.75 198.501  19
  -3  -8   8 1552.55 207.956  18
   3   8   8 1701.65 282.460   4
   3   8   8 2108.04 213.969   6
   3   8   8 1865.44 224.801  12
  -3  -8   8 2063.94 352.866   2
  -3   8  -8 1726.44 288.811  23
  -3   8  -9 18768.4 1037.01  22
  -3  -8   9 18023.9 691.268  19
  -3  -8   9 18153.3 717.396  18
   3   8   9 17722.1 914.403   4
   3   8   9 18331.9 711.011   6
   3  -8  -9 16647.9 936.961  20
   3   8   9 18290.2 743.635  12
  -3   8  -9 17727.1 934.869  23
  -3   8 -10 40.4627 151.156  22
   3   8  10 100.429 95.1927   6
   3  -8 -10 104.409 134.923  20
  -3  -8  10 110.322 96.9162  19
  -3  -8  10 102.064 105.756  18
   3   8  10 31.2403 148.329   4
   3   8  10 50.4271 120.665  12
  -3   8 -10 66.6433 133.715  23
   3  -8 -11 18694.6 989.430  20
  -3  -8  11 20891.3 756.907  19
  -3  -8  11 20984.5 750.611  18
   3   8  11 19760.9 978.373   4
  -3  -8  11 20369.4 1088.96   2
  -3   8 -11 20252.8 1089.63  22
   3   8  11 20476.2 803.676  12
   3   8  11 20785.7 757.098   6
  -3   8 -11 19819.4 1014.01  23
  -3  -8  12 14119.0 574.609  19
  -3  -8  12 13580.1 546.867  18
   3   8  12 14896.9 634.042  12
   3   8  12 14094.2 574.761   6
  -3  -8  13 1982.42 200.407  19
   3   8  13 2567.15 214.741   6
  -3  -8  14 2982.20 224.562  19
   3   8  14 2899.78 216.202   6
   3   8  15 6335.30 341.029  10
  -3  -8  15 5831.54 310.253  19
   3   8  15 6513.20 356.563  12
   3   8  15 6117.79 305.884   6
   3   8  16 10304.4 427.105  10
  -3  -8  16 9399.20 396.932  19
   3   8  16 9928.06 437.459  12
   3   8  16 9511.89 386.811   6
   3   8  17 7941.80 343.787  10
   3   8  17 8294.78 364.543  12
   3   8  18 973.634 111.751  12
   3  -9  16 448.389 72.0036  19
   3  -9  16 390.750 99.7819   8
   3  -9  15 4068.82 221.665  19
   3  -9  15 5233.54 289.193   8
   3  -9  14 3645.40 219.342  19
   3  -9  14 4430.42 279.677   8
   3  -9  13 7419.77 346.797  19
   3  -9  13 8243.35 414.623   8
  -3   9  13 7596.52 359.851  17
   3  -9  12 3162.67 223.485  19
   3  -9  12 2886.06 249.975   8
  -3   9  12 3305.13 245.388  17
  -3   9  11 7168.45 413.736  10
   3  -9  11 6589.74 348.070  19
  -3   9  11 7749.05 396.757  17
  -3   9  10 789.702 153.935  10
   3  -9  10 745.721 135.978  19
  -3   9  10 821.379 158.467  17
  -3   9   9 11462.7 553.746  10
   3  -9   9 11427.0 487.684  19
  -3   9   9 10424.8 525.997  17
  -3   9   8 3990.10 315.720  10
   3  -9   8 3634.20 406.502   1
   3  -9   8 4745.00 289.648  19
   3   9  -8 3864.44 460.251  23
   3  -9   7 2553.90 347.350   1
   3  -9   7 2717.96 330.275   2
  -3   9   7 2579.35 256.384  10
   3  -9   7 2611.56 223.335  19
  -3  -9  -7 2217.80 204.163  18
  -3  -9  -7 2848.76 336.946   3
   3   9  -7 2348.01 373.653  23
  -3   9   6 7980.40 452.724  10
   3  -9   6 6558.29 539.451   1
   3  -9   6 8429.95 409.586  19
  -3  -9  -6 8643.39 418.352  18
  -3   9   6 7572.92 569.577   4
   3  -9   6 7894.57 581.274   2
  -3  -9  -6 6447.43 524.088   3
   3   9  -6 7388.80 647.995  23
  -3   9   5 1906.46 223.643  10
  -3  -9  -5 1814.74 203.472  18
   3   9  -5 1946.58 349.973  23
  -3   9   5 2079.05 302.395   4
   3  -9   5 1681.17 233.336  14
   3  -9   5 1769.78 278.476   2
  -3  -9  -5 1666.70 266.408   3
  -3   9   4 203.581 119.384  10
   3  -9   4 245.872 180.237  20
  -3  -9  -4 297.455 119.365  18
  -3   9   4 222.420 127.659   4
   3  -9   4 340.897 146.973  14
   3   9  -4 305.572 216.990  23
  -3  -9  -4 299.965 152.384   3
  -3   9   3 2483.98 244.761  10
  -3   9   3 2396.31 383.446  22
  -3  -9  -3 2312.11 235.870  18
  -3   9   3 2858.82 351.810   4
   3  -9   3 2580.79 265.700  14
  -3  -9  -3 2407.25 304.419   3
   3   9  -3 2023.41 375.000  23
  -3   9   2 4784.18 523.211  22
   3  -9   2 4894.28 520.801  20
  -3  -9  -2 4725.87 449.351   2
  -3  -9  -2 5859.21 371.159  18
   3   9  -2 4574.53 518.252  23
  -3   9   2 4359.96 443.055   4
   3  -9   2 5286.44 371.934  14
  -3  -9  -2 5226.58 452.705   3
  -3   9   1 3104.44 435.803  22
   3  -9   1 4346.11 491.961  20
  -3  -9  -1 3610.27 402.305   2
  -3  -9  -1 4230.63 311.925  18
   3  -9   1 3452.62 300.333  14
   3   9  -1 3181.16 271.783   6
  -3  -9  -1 3128.76 349.086   3
   3   9  -1 3693.56 470.326  23
  -3  -9   0 228.540 132.468   3
   3   9   0 235.870 115.320   6
   3   9   0 175.970 170.617  23
   3  -9   0 40.4709 145.344  20
  -3  -9   0 262.640 127.094  18
  -3   9   0 253.734 180.721  22
   3  -9   0 213.640 129.224  14
  -3  -9   0 356.173 160.933   2
  -3   9  -1 4082.04 486.680  22
   3  -9  -1 3530.55 447.801  20
  -3  -9   1 4131.90 445.718   2
  -3  -9   1 3846.64 310.018  18
   3  -9  -1 3702.59 298.821  14
   3   9   1 4263.67 301.169   6
  -3  -9   1 3157.52 347.148   3
   3   9   1 3910.33 260.385  12
  -3   9  -2 5438.64 545.388  22
   3  -9  -2 5265.46 534.330  20
  -3  -9   2 4710.59 494.884   2
  -3  -9   2 5589.23 374.949  18
   3  -9  -2 5188.48 345.553  14
   3   9   2 5541.69 344.296   6
  -3  -9   2 4701.58 420.790   3
   3   9   2 4725.80 300.877  12
  -3  -9   3 1853.64 264.851   3
   3  -9  -3 2295.71 354.304  20
  -3  -9   3 2466.21 255.950  18
   3   9   3 1719.33 284.817   4
   3   9   3 2227.48 219.936   6
  -3   9  -3 1784.30 323.149  22
   3   9   3 2468.91 221.900  12
  -3  -9   3 1991.50 342.553   2
   3   9   3 2375.10 387.559  23
  -3   9  -4 247.083 165.353  22
   3   9   4 456.537 133.924   6
   3  -9  -4 469.524 198.683  20
   3   9   4 95.7245 114.684   4
  -3   9  -4 344.574 124.325  17
   3   9   4 44.0132 151.361  23
  -3  -9   4 199.412 170.476   2
   3   9   4 304.717 113.667  12
  -3   9  -5 1507.85 310.483  22
   3  -9  -5 1462.59 285.353  20
   3   9   5 1920.77 341.271  23
  -3  -9   5 1931.77 223.433  18
  -3   9  -5 1870.86 202.706  17
   3   9   5 1678.20 272.075   4
   3   9   5 1925.33 201.938   6
   3   9   5 1865.31 204.344  12
  -3  -9   5 1619.44 316.932   2
  -3   9  -6 7327.70 629.504  22
   3  -9  -6 7573.06 615.576  20
  -3  -9   6 8899.68 469.247  18
   3   9   6 7404.74 563.425   4
  -3  -9   6 7601.05 642.289   2
   3   9   6 8099.13 418.548   6
   3   9   6 7166.63 412.348  12
   3   9   6 7802.21 671.527  23
  -3   9  -7 1863.62 321.698  22
   3  -9  -7 2527.99 363.525  20
  -3  -9   7 2752.27 233.531  19
  -3  -9   7 2578.22 252.222  18
   3   9   7 2380.68 322.456   4
   3   9   7 2515.73 232.774   6
   3   9   7 2827.06 249.876  12
  -3  -9   7 2870.99 394.445   2
  -3   9  -8 4158.81 466.534  22
   3  -9  -8 4200.55 439.691  20
  -3  -9   8 4394.11 286.960  19
  -3  -9   8 3915.90 303.514  18
  -3  -9   8 4433.12 481.699   2
   3   9   8 3455.62 382.103   4
   3   9   8 4172.35 289.035   6
   3   9   8 4188.51 311.426  12
  -3  -9   9 10462.1 472.229  19
  -3  -9   9 10638.5 499.060  18
   3   9   9 10155.0 503.218  12
   3   9   9 10678.9 477.078   6
   3   9  10 792.570 136.644   6
  -3  -9  10 784.800 135.582  19
  -3  -9  10 625.625 134.884  18
   3   9  10 757.196 156.262  12
  -3  -9  11 6576.19 346.136  19
  -3  -9  11 6465.68 345.241  18
  -3  -9  11 6465.09 334.581  14
   3   9  11 6684.58 382.194  12
   3   9  11 7045.18 349.559   6
  -3  -9  12 3095.35 226.333  19
   3   9  12 3013.78 258.689  12
   3   9  12 3339.10 226.762   6
  -3  -9  13 7468.84 355.439  19
   3   9  13 8300.23 407.661  10
   3   9  13 7955.23 402.545  12
   3   9  13 7497.41 343.199   6
   3   9  14 4473.92 273.420  10
  -3  -9  14 4099.42 236.671  19
   3   9  14 3881.93 221.830   6
   3   9  15 4637.61 262.051  10
  -3  -9  15 4211.27 225.227  19
   3   9  16 367.013 85.5304  10
   3   9  16 485.494 96.8901  12
   3   9  17 3540.03 180.614  10
   3   9  17 3352.99 188.725  12
   3 -10  16 2628.72 152.490   8
   3 -10  15 2324.12 162.434   8
   3 -10  14 9200.28 330.836  19
   3 -10  14 11182.7 417.644   8
   3 -10  13 2114.96 148.351  19
   3 -10  13 1824.51 170.419   8
   3 -10  12 8467.66 387.361   8
  -3  10  12 7837.12 351.833  17
   3 -10  11 1498.71 149.956  19
   3 -10  11 1869.64 194.316   8
  -3  10  11 1721.65 173.671  17
  -3  10  10 7502.80 379.574  17
   3 -10  10 6552.03 323.799  19
   3 -10   9 981.616 132.293  19
  -3  10   9 870.135 153.855  17
   3 -10   8 2661.77 209.410  19
  -3  10   8 2429.05 235.619  17
   3 -10   7 3614.62 241.127  19
  -3 -10  -7 2943.86 214.822  18
   3 -10   6 2202.29 197.457  19
  -3 -10  -6 1759.76 185.035  18
   3 -10   5 2919.56 227.544  19
  -3 -10  -5 2655.19 226.162  18
  -3 -10  -4 15986.2 644.037  18
  -3 -10  -3 2750.67 249.327  18
   3  10  -3 3216.91 261.653   6
   3  10  -2 1423.29 184.021   6
   3 -10   2 1252.81 286.737  20
   3  10  -1 447.500 126.857   6
  -3  10   1 290.493 197.253  22
   3 -10   1 324.392 197.274  20
  -3 -10  -1 411.669 139.968  18
  -3  10   0 4461.41 498.816  22
   3 -10   0 4570.76 490.751  20
  -3 -10   0 4680.06 335.138  18
   3  10   0 4557.76 308.667   6
  -3  10  -1 409.646 203.718  22
   3  10   1 351.531 119.799   6
   3 -10  -1 642.263 224.120  20
  -3 -10   1 221.777 121.477  18
   3  10   1 429.552 199.208  23
  -3 -10   2 1781.86 224.564  18
  -3  10  -2 1649.95 205.963  17
   3  10   2 1616.13 189.171   6
   3  10   2 1560.47 167.162  12
  -3 -10   3 2712.48 263.921  18
  -3  10  -3 3168.30 256.666  17
   3  10   3 2475.86 229.325   6
   3  10   3 2897.82 225.092  12
  -3  10  -4 16782.5 642.003  17
   3  10   4 16875.2 652.090   6
   3  10   4 15056.9 611.272  12
  -3  10  -5 2752.87 218.888  17
   3  10   5 2657.63 225.285   6
   3  10   5 2680.34 230.845  12
  -3 -10   6 1909.45 193.019  19
  -3 -10   6 1771.40 211.755  18
   3  10   6 1958.78 194.420   6
   3  10   6 1934.90 202.143  12
  -3 -10   7 3840.16 256.542  19
  -3 -10   7 3364.60 274.862  18
   3  10   7 3224.67 253.722  12
   3  10   7 3950.59 256.262   6
  -3 -10   8 2628.94 213.565  19
  -3 -10   8 2493.60 225.169  18
   3  10   8 2711.80 226.779  12
   3  10   8 2704.87 209.943   6
  -3 -10   9 736.975 125.156  19
  -3 -10   9 766.075 139.792  18
   3  10   9 1018.38 132.310   6
   3  10   9 1094.02 156.606  12
   3  10  10 7885.65 396.243  10
  -3 -10  10 7316.54 346.852  19
  -3 -10  10 7379.14 360.954  18
  -3 -10  10 7469.02 355.213  14
   3  10  10 7668.73 384.962  12
   3  10  10 7137.19 334.137   6
  -3 -10  11 1544.55 154.076  19
   3  10  11 1779.91 184.720  10
   3  10  11 1722.55 176.032  12
  -3 -10  12 7322.48 324.874  19
   3  10  12 7777.79 373.832  10
   3  10  12 7670.15 369.701  12
   3  10  13 2367.37 187.339  12
   3  10  14 10869.9 425.200  10
   3  10  14 10986.5 426.712  12
   3  10  15 2531.46 163.560  10
   3  10  16 2446.15 136.927  10
   3 -11  14 1415.19 103.924   8
   3 -11  13 855.857 99.7412   8
  -3  11  12 717.198 89.4769  17
   3 -11  12 824.235 111.707   8
   3 -11  11 4378.51 242.133   8
  -3  11  11 4738.25 235.399  17
   3 -11  10 7027.62 291.682  19
   3 -11  10 7612.33 348.694   8
  -3  11  10 8065.45 349.805  17
   3 -11   9 1104.93 114.297  19
  -3  11   9 1133.98 146.710  17
   3 -11   8 2288.27 167.613  19
  -3  11   8 2206.13 199.461  17
   3  11  -8 2398.45 192.962   6
   3 -11   7 554.692 96.3817  19
   3  11  -7 537.965 108.731   6
   3  11  -6 765.859 128.150   6
   3 -11   6 655.952 110.887  19
   3 -11   5 8119.93 366.106  19
  -3 -11  -5 8377.14 375.875  18
  -3  11   5 8898.65 435.671  17
   3  11  -5 8565.44 402.828   6
   3 -11   4 1681.65 159.487  19
  -3 -11  -4 1429.72 162.601  18
  -3  11   4 1825.24 200.108  17
   3  11  -4 2057.10 189.131   6
  -3 -11  -3 1289.14 167.027  18
  -3  11   3 1334.40 179.781  17
   3  11  -3 1560.70 168.673   6
  -3 -11  -2 4769.79 304.160  18
  -3  11   2 5467.27 336.631  17
   3  11  -2 5261.59 305.348   6
   3  11  -1 683.099 126.808   6
  -3 -11  -1 679.464 140.981  18
  -3  11   1 650.929 139.135  17
   3  11   0 24.1680 86.7375   6
  -3 -11   0-14.2682 101.342  18
  -3  11   0 70.4175 106.224  17
   3  11   1 581.743 117.753   6
  -3 -11   1 724.639 150.229  18
  -3  11  -1 674.836 137.912  17
   3  11   2 5000.35 275.822  10
  -3 -11   2 5045.15 325.946  18
  -3  11  -2 5409.26 312.995  17
   3  11   2 5261.18 299.562   6
   3  11   3 1131.26 143.973   6
   3  11   3 1417.84 154.528  10
  -3 -11   3 1541.25 190.407  18
  -3  11  -3 1374.84 158.002  17
   3  11   4 1904.84 178.922  10
  -3 -11   4 1711.89 166.600  19
  -3  11  -4 1611.95 162.455  17
   3  11   4 1884.49 171.913   6
   3  11   5 8539.89 389.027  10
  -3 -11   5 8837.41 382.377  19
   3  11   5 7751.21 357.940  12
   3  11   5 7961.85 364.197   6
   3  11   6 740.725 110.757   6
   3  11   6 937.273 134.362  10
  -3 -11   6 902.006 123.856  19
  -3 -11   6 616.887 137.882  18
   3  11   6 885.077 126.913  12
   3  11   7 411.471 105.453  10
  -3 -11   7 483.825 101.486  19
  -3 -11   7 370.146 109.020  18
   3  11   7 388.079 100.991  12
   3  11   8 2366.18 193.666  10
  -3 -11   8 2439.32 177.655  19
  -3 -11   8 2502.50 197.264  14
   3  11   8 2536.27 190.510  12
   3  11   9 1205.94 141.599  10
  -3 -11   9 1021.79 114.827  19
  -3 -11   9 1187.09 133.336  14
   3  11   9 1180.28 136.955  12
   3  11  10 7818.43 345.364  10
   3  11  10 7777.61 330.724  12
   3  11  11 4318.73 238.718  10
   3  11  12 1071.55 118.359  10
   3  11  13 994.730 102.696  10
   3 -12  10 3001.13 158.388   8
  -3  12  10 2556.76 142.540  17
   3 -12   9 1736.03 134.001   8
  -3  12   9 1870.18 135.438  17
  -3  12   8 207.368 75.1638  17
   3 -12   8 116.006 68.9512   8
   3 -12   6 155.727 55.1888  19
  -3  12   6 169.084 89.7915  17
  -3 -12  -6 118.437 58.8252  14
  -3  12   5 5520.02 284.944  17
  -3 -12  -5 5222.70 246.112  14
  -3  12   4 2695.27 202.586  17
   3 -12   4 2250.41 151.123  19
  -3 -12  -4 2222.49 171.520  14
   3  12  -3 95.5834 61.8044   6
   3 -12   3 157.735 65.0021  19
  -3  12   3 42.0657 74.7356  17
   3 -12   2 2358.58 159.543  19
  -3  12   2 2596.08 199.045  17
   3  12  -2 2335.27 168.137   6
   3  12  -1 494.805 86.9224   6
   3 -12   1 267.604 81.5552  19
  -3  12   1 576.831 112.388  17
   3  12   0 132.947 65.3695   6
  -3  12   0 59.3544 78.0921  17
  -3  12  -1 425.235 94.4094  17
  -3  12  -2 2906.63 189.884  17
  -3  12  -3 91.1838 60.4031  17
   3  12   4 2236.32 145.261  10
   3  12   5 4814.61 229.230  10
  -3 -12   5 4907.60 266.858  14
   3  12   6 200.381 66.8342  10
  -3 -12   6 87.9216 74.0912  14
   3  12   7 6406.44 268.581  10
  -3 -12   7 6155.08 281.342  14
  -3 -12   8 95.2107 60.3540  14
   3  12   8 167.846 61.8565  10
   3  12   9 1606.22 119.009  10
  -3 -12   9 1392.46 99.3928  14
   3  12  10 3049.76 153.891  10
  -3  13   5 4289.66 189.481  17
  -3  13   4 2824.36 152.758  17
  -3  13   3 3735.80 180.749  17
  -3  13   2 1089.98 97.3142  17
  -3 -13  -2 947.477 88.2834  14
  -3  13   1 1657.30 113.940  17
  -3 -13  -1 1814.18 126.296  14
  -3 -13   0 3367.79 177.714  14
  -3 -13   1 2061.68 139.593  14
  -3 -13   2 879.394 97.1176  14
  -3 -13   3 3864.30 191.526  14
  -3 -13   5 4408.78 189.239  14
   4   0   0 28366.4 979.529  20
  -4   0   0 29835.0 1016.34   3
  -4   0  -1 15577.6 733.290  21
   4   0   1 15973.7 613.499  20
   4   0  -1 15970.4 656.232  20
  -4   0  -1 14929.1 636.049   3
  -4   0   1 15644.5 652.784   3
  -4   0   2 1224.83 118.108  22
  -4   0  -2 1196.87 214.690  21
   4   0  -2 1386.43 182.796  20
   4   0   2 1249.24 141.027  20
  -4   0   2 1396.06 179.896   3
   4   0   2 1056.47 98.1112   6
  -4   0   3 116.192 89.4171   3
  -4   0   3 147.863 46.5839  22
  -4   0   3 122.354 109.827   2
   4   0   3 128.502 56.7975   6
  -4   0  -3 200.319 124.222  21
  -4   0   3 299.617 136.717  21
   4   0  -3 94.7940 98.2628  20
   4   0   3 97.3874 62.2825  20
  -4   0  -4 11439.9 617.398  21
  -4   0   4 12376.0 623.744  21
  -4   0   4 11030.8 591.873   2
   4   0   4 11394.8 421.912  20
  -4   0   4 11631.0 554.036   3
   4   0   4 11016.9 399.458   6
   4   0  -4 11066.6 580.348  20
  -4   0   5 5137.69 395.334  21
  -4   0  -5 5175.11 410.632  21
  -4   0   5 6197.96 429.950   2
  -4   0   5 5229.34 367.311   3
   4   0   5 5721.85 257.820   6
  -4   0   6 3816.88 227.059   5
  -4   0  -6 3911.53 366.519  21
  -4   0   6 4482.20 379.171   2
   4   0   6 4007.46 215.987   6
  -4   0   6 4057.34 325.387   3
  -4   0  -7 8589.89 549.889  21
  -4   0   7 7900.19 348.060   5
   4   0   7 7636.29 514.731   1
  -4   0   7 8426.33 548.360   2
   4   0   7 7654.02 339.114   6
  -4   0   7 8434.10 502.267   3
  -4   0  -8 1321.84 122.403   5
  -4   0   8 1448.41 141.573   5
   4   0   8 1315.15 227.743   1
  -4   0   8 1322.67 242.886   2
   4   0   8 1437.05 139.677   6
  -4   0  -8 1920.54 268.088  21
   4   0   9 841.745 124.080   6
  -4   0   9 1113.99 126.687   5
   4   0   9 951.822 133.592   8
  -4   0   9 792.350 122.027  16
  -4   0  -9 824.646 196.632  21
   4   0   9 884.395 193.639   1
  -4   0 -10 8508.44 588.155  21
  -4   0  10 7733.30 345.295   5
   4   0  10 8393.26 558.389   1
   4   0  10 8306.44 404.749   8
  -4   0  10 7704.46 367.848  16
   4   0  10 8413.02 380.444   6
  -4   0  10 7803.02 391.669  11
  -4   0  11 1833.23 151.999   5
   4   0  11 1670.84 189.196   8
   4   0  11 1905.41 177.544   6
  -4   0 -11 1349.52 263.474  21
   4   0  11 1975.79 283.372   1
  -4   0  11 2018.67 193.146  11
  -4   0 -12 2421.36 339.053  21
   4   0  12 3263.15 255.476   8
   4   0  12 2978.59 346.790   1
   4   0  12 2908.90 226.758   6
  -4   0  12 2329.93 209.372  11
  -4   0  13 25.0388 85.0535  11
   4   0  13-13.2785 80.2167   6
  -4   0 -13-36.0534 123.883  21
   4   0  13 30.1331 116.809   1
   4   0 -13 76.5210 158.554  20
   4   0  13 93.7250 101.067   8
   4   0  13 24.9954 90.6362   7
  -4   0  14 766.688 128.465  11
   4   0  14 974.176 149.945   6
  -4   0 -14 891.079 225.287  21
   4   0  14 667.628 181.844   1
   4   0 -14 988.761 256.762  20
   4   0  14 851.827 166.765   8
   4   0  14 984.472 141.833   7
  -4   0 -15-37.6066 116.883  21
   4   0  15 29.9747 120.272   1
   4   0  15 16.8685 109.137   8
  -4   0  15-22.8824 79.5137  11
   4   0  15 12.1482 78.5975   7
   4   0 -15 80.5450 138.379  20
  -4   0 -16 484.453 197.011  21
   4   0  16 425.777 136.888   8
   4   0  16 231.165 134.099   1
   4   0  16 250.066 93.7831   7
   4   0 -16 281.213 190.881  20
   4   0  16 356.233 125.163  13
   4   0 -17 78.2591 146.309  20
  -4   0 -17 215.981 149.315  21
   4   0  17 467.861 135.360   8
   4   0  17 306.617 93.7427   7
   4   0  17 217.936 108.588  13
   4   0  18 1944.85 215.673   8
   4   0  18 1795.23 182.611  13
   4   0  19 103.596 114.765   8
   4   0  20 10409.4 472.746   8
   4   0  20 10191.7 473.046  15
   4   0  21 2203.73 192.737   8
   4   0  21 2142.55 197.647  15
   4   0  22 4507.56 253.604   8
   4   0  22 5171.47 266.957  15
   4   0  23 2056.15 146.385  15
   4   0  24 4097.07 172.594  15
   4  -1  23 2030.15 138.667  15
   4  -1  22 1602.08 153.669   8
   4  -1  22 1792.22 153.635  15
   4  -1  21 8939.45 403.053   8
   4  -1  21 8321.72 389.320  15
   4  -1  20 5592.30 325.865   8
   4  -1  20 5102.22 314.274  15
   4  -1  19 653.785 152.183   8
   4  -1  19 445.952 138.035  15
   4  -1  18 16.1281 116.970   8
   4  -1  18 110.282 116.570  15
  -4  -1 -17 8615.68 669.327  21
   4   1 -17 8224.67 662.191  20
   4  -1  17 8880.74 479.073   8
   4  -1  17 8501.63 596.978   1
   4  -1  17 9179.94 405.257   7
   4  -1  17 9096.43 484.714  15
   4  -1  17 8888.83 423.765  13
  -4  -1 -16 4283.01 483.694  21
   4  -1  16 4163.71 423.069   1
   4  -1  16 5432.79 356.945   8
   4   1 -16 5051.73 521.671  20
   4  -1  16 4583.55 284.010   7
   4  -1  16 5269.03 366.234  15
  -4   1  15 1605.78 164.874  11
   4  -1  15 1520.66 204.451   8
   4  -1  15 1673.15 283.329   1
   4  -1  15 1520.15 173.233   7
  -4  -1 -15 1650.32 305.854  21
   4  -1  15 1247.07 204.031  15
  -4   1  14 872.339 135.175  11
  -4  -1 -14 752.637 240.273  21
   4  -1  14 806.936 212.596   1
   4  -1  14 1131.91 184.592   8
   4  -1  14 839.664 141.390   7
  -4  -1 -13 3106.00 404.745  21
   4  -1  13 3183.21 269.468   8
   4  -1  13 3113.54 241.843   7
   4  -1  13 2607.99 347.971   1
  -4   1  13 3507.10 247.106  11
   4  -1  12 6418.61 337.397   6
  -4   1  12 6320.43 344.351  11
  -4  -1 -12 6090.46 540.012  21
  -4   1  12 5866.15 289.015   5
   4  -1  12 6452.12 373.626   8
   4  -1  12 6106.32 340.246   7
   4  -1  12 6382.10 513.755   1
   4  -1  11 11622.0 480.014   6
  -4  -1 -11 11660.9 736.967  21
  -4   1  11 11275.1 446.019   5
   4  -1  11 12183.6 524.874   8
  -4   1  11 11447.8 470.161  16
   4  -1  11 11745.6 697.607   1
   4  -1  10 11812.1 467.568   6
  -4  -1 -10 11135.7 716.563  21
  -4   1  10 11216.9 450.514   5
   4  -1  10 11702.9 507.266   8
   4  -1  10 11607.2 683.624   1
  -4   1  10 11918.4 481.430  16
  -4  -1  -9 26821.9 1146.66  21
  -4   1   9 23995.0 796.216   5
   4  -1   9 27122.3 1100.97   1
   4  -1   9 25032.5 844.083   8
  -4   1   9 24954.5 828.362  16
   4  -1   9 25180.3 804.027   6
  -4  -1  -8 1105.31 231.072  21
  -4   1   8 1290.40 137.444   5
   4  -1   8 1157.69 125.578   6
   4  -1   8 890.921 127.211   8
  -4  -1  -7 44920.5 1610.63  21
  -4   1   7 44528.8 1280.05   5
   4  -1   7 43469.1 1244.68   6
  -4  -1  -6 7337.48 503.964  21
  -4   1   6 7050.66 320.446   5
   4  -1   6 6864.30 473.611   1
   4  -1   6 6529.92 308.215  20
   4  -1   6 6637.88 287.724   6
  -4  -1  -5 10498.0 610.337  21
   4  -1   5 11148.7 602.303   1
  -4   1   5 10574.8 423.372   5
   4  -1   5 10269.1 433.051  20
  -4   1   5 11059.5 527.008   3
   4  -1   5 10828.5 385.026   6
  -4   1   4 64949.4 1810.41  22
  -4  -1  -4 67002.9 2070.72  21
   4  -1   4 67907.1 2062.35   1
  -4   1   4 68214.4 1783.38   5
   4  -1   4 66114.9 1828.35  20
   4   1  -4 61936.9 1804.05  23
  -4   1   4 63680.8 1896.58   3
   4  -1   4 63027.1 1709.00   6
   4  -1   3 5063.18 297.263  20
  -4   1   3 4523.66 271.191  22
  -4   1   3 5503.19 325.669   3
   4   1  -3 4702.63 282.627  23
  -4   1   2 1710.23 169.939  22
  -4   1   2 1633.99 233.885  21
   4  -1   2 2212.16 201.362  20
   4   1  -2 1549.30 174.638  23
  -4   1   2 1501.17 168.835   3
  -4   1   1 5125.90 257.909   5
  -4   1   1 4836.82 376.991  21
   4   1  -1 5400.99 332.243  20
   4  -1   1 5154.31 322.511  20
   4   1  -1 4871.22 309.304  23
   4   1  -1 4999.89 226.633   6
  -4  -1  -1 5169.97 333.544   2
  -4   1   1 5531.37 315.891   3
  -4   1   0 38606.3 1342.80  21
  -4   1   0 38020.2 1098.90   5
   4   1   0 39895.0 1205.61  20
   4  -1   0 38052.7 1237.19  20
  -4  -1   0 37641.8 1277.30   3
  -4  -1   0 38161.9 1249.47   2
  -4   1   0 40125.1 1196.27   3
   4   1   0 35016.3 1048.10   6
  -4  -1   0 40269.7 1355.09  21
  -4  -1   1 5684.44 391.459  21
  -4   1  -1 4749.71 244.728   5
  -4  -1   1 4348.07 203.479  22
   4   1   1 5118.05 288.920  20
   4  -1  -1 5261.19 349.367  20
  -4   1  -1 5278.44 393.143  21
  -4   1  -1 5151.28 304.778   3
  -4  -1   1 5531.95 359.812   2
  -4  -1   1 5315.03 355.937   3
   4   1   1 5053.77 231.428   6
  -4   1  -2 1595.80 137.651   5
  -4  -1   2 1909.31 233.621  21
   4   1   2 1596.10 148.000  20
   4  -1  -2 1229.13 185.869  20
  -4   1  -2 1352.28 206.822  21
  -4   1  -2 1545.17 170.361   3
  -4  -1   2 1480.26 204.637   2
  -4  -1   2 1521.38 201.803   3
   4   1   2 1584.55 129.127   6
  -4   1  -3 5675.16 406.219  21
  -4   1  -3 4751.19 241.876   5
  -4  -1   3 4701.09 368.298  21
   4  -1  -3 4517.79 347.588  20
   4   1   3 4671.14 228.915  20
  -4  -1   3 4751.31 362.087   2
  -4  -1   3 5474.56 366.566   3
   4   1   3 4494.94 231.120   6
  -4  -1   4 67180.5 2049.47  21
  -4   1  -4 64983.4 1787.02   5
   4  -1  -4 68416.5 2066.98  20
  -4  -1   4 70323.3 2080.63   2
  -4   1  -4 63879.0 2062.38  21
  -4  -1   4 67737.6 2020.47   3
   4   1   4 64968.9 1780.88   6
  -4   1  -5 10499.8 402.680   5
  -4  -1   5 11243.5 588.337  21
   4  -1  -5 11512.4 609.871  20
  -4   1  -5 10099.6 585.215  21
  -4  -1   5 9872.41 585.074   2
   4   1   5 10404.1 406.703   6
  -4  -1   5 11316.0 581.779   3
  -4   1  -6 7716.70 497.323  21
   4  -1  -6 6558.28 468.430  20
  -4   1  -6 7058.89 302.438   5
  -4  -1   6 6533.35 474.311   2
   4   1   6 6876.97 312.934   6
  -4  -1   6 6534.57 443.834   3
   4   1   7 45386.0 1578.42   1
  -4   1  -7 46208.4 1589.29  21
  -4   1  -7 44604.0 1258.80   5
  -4  -1   7 44624.2 1604.50   2
  -4  -1   7 44923.8 1329.59  11
   4   1   7 45086.5 1295.55   6
  -4  -1   7 44320.2 1539.36   3
  -4  -1   8 1093.91 206.406   3
  -4  -1   8 1231.17 128.528   5
  -4   1  -8 1046.99 208.215  21
   4   1   8 1084.90 136.592   8
   4   1   8 1156.59 213.253   1
   4   1   8 1085.31 135.526   6
  -4  -1   8 1229.12 150.331  11
  -4  -1   8 1573.13 256.487   2
  -4   1  -9 25177.3 1078.23  21
  -4  -1   9 25077.0 788.092   5
   4  -1  -9 25223.0 1113.37  20
   4   1   9 25532.9 1062.10   1
   4   1   9 25495.9 836.128   8
  -4  -1   9 24354.0 810.087  16
   4   1   9 24259.8 813.200   6
  -4  -1   9 23382.2 828.193  11
  -4   1 -10 12415.2 703.970  21
   4  -1 -10 10540.6 692.376  20
  -4  -1  10 11250.4 439.679   5
   4   1  10 10965.7 647.361   1
   4   1  10 11168.8 494.053   8
   4   1  10 12132.1 493.449   6
  -4  -1  10 11898.0 501.046  11
  -4   1 -11 11869.9 707.616  21
   4  -1 -11 11757.5 735.636  20
  -4  -1  11 11056.3 431.717   5
   4   1  11 11242.1 506.767   8
   4   1  11 12111.4 683.547   1
  -4  -1  11 11705.2 497.919  11
  -4  -1  11 11316.1 724.578   2
   4   1  11 11782.0 498.591   6
  -4   1 -12 6339.33 525.074  21
   4  -1 -12 6586.28 562.516  20
   4   1  12 6361.08 369.759   8
   4   1  12 6659.74 500.080   1
  -4  -1  12 6943.19 362.786  11
  -4  -1  12 6650.88 555.470   2
   4   1  12 6641.01 359.701   6
  -4   1 -13 4304.37 431.483  21
   4  -1 -13 2669.15 389.455  20
   4   1  13 3612.01 280.922   8
   4   1  13 3644.18 370.189   1
  -4  -1  13 3080.91 238.366  11
   4   1  13 3132.03 249.402   6
  -4   1 -14 1545.28 281.420  21
   4  -1 -14 1059.85 264.929  20
   4   1  14 1105.20 217.418   1
   4   1  14 1112.73 178.072   8
   4   1  14 1004.11 188.329  15
  -4  -1  14 1014.84 146.983  11
   4   1  14 1148.55 166.482   6
   4   1  15 1562.70 188.776   6
   4  -1 -15 1552.29 305.229  20
   4   1  15 1595.93 249.585   1
   4   1  15 1690.42 205.002   8
   4   1  15 1466.30 161.866   7
   4   1  15 1553.11 214.812  15
   4   1  15 1857.04 213.617  13
  -4   1 -15 792.324 211.309  21
  -4  -1  15 1513.50 166.363  11
  -4   1 -16 4752.36 459.483  21
   4  -1 -16 3877.46 460.791  20
   4   1  16 5309.42 346.545   8
   4   1  16 4305.53 262.431   7
   4   1  16 4687.87 339.689  15
   4   1  16 4441.85 317.827  13
   4   1  17 8898.25 475.993   8
   4   1  17 9841.59 507.055  15
   4   1  17 9656.99 460.248  13
   4  -1 -17 9311.67 699.775  20
   4   1  18 46.9225 107.488   8
   4   1  18 32.6343 121.904  15
   4   1  18 12.3712 86.9301  13
   4   1  19 346.049 121.707   8
   4   1  19 420.824 142.155  15
   4   1  20 6104.60 341.838   8
   4   1  21 8658.22 392.955   8
   4   1  22 1704.57 151.378   8
   4   1  24 10464.1 341.023  15
   4  -2  22 2913.44 194.221   8
   4  -2  22 3098.96 179.627  15
   4  -2  21 465.336 111.443   8
   4  -2  21 369.546 99.9758  15
   4  -2  20 1812.72 189.461   8
   4  -2  20 1703.31 176.958  15
   4  -2  19 4828.02 321.936   8
   4  -2  19 5127.80 313.545  15
   4  -2  18 3893.01 295.619   8
   4  -2  18 3865.17 290.582  15
  -4  -2 -17 5605.75 543.959  21
   4  -2  17 5761.27 368.048   8
   4  -2  17 5082.64 293.307   7
   4  -2  17 5215.43 345.233  15
   4  -2  17 4840.18 295.739  13
  -4  -2 -16 335.191 173.781  21
   4  -2  16 190.302 123.088   8
   4  -2  16 426.979 151.393  15
   4  -2  16 322.228 104.560   7
   4  -2  16 231.995 161.211   1
  -4  -2 -15 2869.16 406.570  21
   4  -2  15 2681.65 265.197   8
   4  -2  15 2994.25 232.310   7
   4  -2  15 2904.94 275.121  15
   4  -2  15 2453.16 340.123   1
  -4   2  15 2887.72 218.200  11
  -4  -2 -14 11039.9 779.982  21
   4  -2  14 11185.8 538.940   8
   4  -2  14 11415.7 500.107   7
   4  -2  14 10453.3 698.833   1
  -4   2  14 10233.4 462.457  11
  -4  -2 -13 42615.5 1775.13  21
   4  -2  13 44754.9 1419.98   8
   4  -2  13 45315.8 1370.32   7
   4  -2  13 44988.9 1695.55   1
  -4  -2 -12 15770.8 913.078  21
   4  -2  12 16001.4 647.203   8
   4  -2  12 14778.9 601.187   7
   4  -2  12 13642.3 807.989   1
  -4  -2 -11 18763.0 997.810  21
  -4   2  11 18767.6 655.747   5
   4  -2  11 20020.1 741.428   8
  -4   2  11 17964.1 670.709  16
   4  -2  11 19215.3 706.116   7
   4  -2  11 19776.7 959.657   1
  -4  -2 -10 9407.12 665.000  21
  -4   2  10 9562.00 407.612   5
   4  -2  10 9682.46 457.606   8
  -4   2  10 9205.40 424.242  16
   4  -2  10 9735.88 446.575   7
   4  -2  10 9687.19 628.011   1
  -4  -2  -9 359.092 169.467  21
  -4   2   9 501.458 103.936   5
  -4   2   9 414.338 106.962  17
   4  -2   9 411.165 113.814   8
  -4   2   9 553.704 110.409  16
   4  -2   9 429.136 111.703   7
   4  -2   8 35180.5 1004.71   6
  -4  -2  -8 35091.8 1376.66  21
  -4   2   8 33924.3 1038.72   5
   4  -2   8 31774.4 1047.48   8
  -4   2   8 33873.5 1071.84  17
   4  -2   7 3848.71 204.942   6
  -4   2   7 3600.09 228.505   5
   4  -2   7 3586.10 256.747  20
   4  -2   7 3965.77 369.097   1
  -4   2   7 3821.06 253.475  17
   4  -2   6 11219.3 413.199   6
  -4   2   6 13069.8 484.853   5
   4  -2   6 12693.2 533.227  20
   4  -2   6 13249.6 683.583   1
   4   2  -6 12028.2 539.938  23
  -4   2   5 11304.0 441.804   5
  -4   2   5 11097.1 513.730  22
   4  -2   5 10603.7 494.629  20
   4  -2   5 10853.3 607.553   1
   4   2  -5 10850.3 512.416  23
  -4   2   4 13594.5 506.847   5
   4  -2   4 13845.3 585.848  20
   4  -2   4 14733.2 704.585   1
  -4   2   4 13192.2 582.069  22
  -4  -2  -4 13400.8 523.917   2
   4   2  -4 13629.4 590.645  23
  -4   2   3 22290.1 818.874  22
  -4   2   3 23071.8 959.971  21
   4  -2   3 21995.9 915.908   1
   4  -2   3 21820.0 816.537  20
  -4  -2  -3 21625.9 772.815   2
  -4  -2  -3 21791.9 930.776  21
  -4   2   3 21551.6 758.469   3
   4   2  -3 21825.4 824.924  23
  -4   2   2 56596.0 1642.96  22
  -4  -2  -2 56759.9 1761.72  21
  -4   2   2 54516.6 1758.80  21
   4  -2   2 54794.6 1723.24   1
  -4   2   2 51143.8 1484.58   5
   4  -2   2 55188.6 1642.33  20
  -4  -2  -2 53273.0 1597.65   2
   4   2  -2 50941.1 1627.47  23
  -4   2   2 50443.8 1517.26   3
  -4   2   1 4681.98 250.848   5
  -4  -2  -1 4989.72 379.866  21
   4  -2   1 4633.22 362.156   1
  -4   2   1 4961.34 382.468  21
   4  -2   1 5004.67 340.039  20
  -4  -2  -1 4722.28 317.988   2
   4   2  -1 4866.23 338.719  23
  -4   2   1 4513.48 260.847   3
  -4   2   1 4543.91 327.056  22
   4  -2   0 8957.33 489.775   1
  -4  -2   0 7802.85 480.714  21
  -4   2   0 7939.31 495.656  21
  -4   2   0 7792.51 343.773   5
   4  -2   0 8415.18 465.265  20
  -4  -2   0 7753.89 445.388   2
  -4  -2   0 8412.16 483.670   3
   4   2   0 8160.70 331.763   6
  -4   2   0 8088.30 358.202   3
   4   2   0 7864.57 451.788  23
   4  -2  -1 4452.94 329.489   1
  -4  -2   1 5180.71 374.754  21
  -4   2  -1 5039.33 383.172  21
   4   2   1 4275.68 259.690  20
  -4   2  -1 4648.15 243.474   5
   4  -2  -1 4769.02 348.099  20
   4   2   1 3848.54 327.018  23
  -4  -2   1 4642.69 343.512   2
  -4  -2   1 4611.56 350.760   3
   4   2   1 4197.29 227.314   6
  -4   2  -1 4781.95 254.659   3
  -4   2  -2 52242.8 1713.82  21
  -4  -2   2 56272.2 1710.39  21
  -4   2  -2 52944.4 1459.60   5
   4   2   2 47444.9 1442.07  20
   4  -2  -2 52898.4 1691.29  20
  -4  -2   2 52489.3 1677.56   2
  -4   2  -2 53287.8 1487.03   3
  -4  -2   2 53168.1 1697.32   3
   4   2   2 52885.8 1452.90   6
   4   2   2 55119.5 1717.84  23
   4  -2  -3 22863.1 919.639  20
  -4  -2   3 23457.6 909.689  21
  -4   2  -3 22875.7 711.547   5
  -4   2  -3 22218.8 921.516  21
  -4  -2   3 20004.3 889.453   2
  -4   2  -3 20293.8 723.556   3
  -4  -2   3 24061.6 928.547   3
   4   2   3 22122.6 706.079   6
  -4   2  -4 14603.5 708.007  21
  -4  -2   4 15016.4 685.706  21
   4  -2  -4 15162.8 716.379  20
  -4   2  -4 13177.5 493.459   5
  -4  -2   4 13234.9 681.807   2
   4   2   4 14336.9 511.411   6
  -4  -2   4 14340.9 689.341   3
  -4  -2   5 10753.0 565.882  21
   4  -2  -5 10717.2 606.989  20
  -4   2  -5 10753.2 409.053   5
  -4   2  -5 10234.1 589.703  21
  -4  -2   5 10558.6 602.980   2
   4   2   5 10115.5 419.107   6
  -4  -2   5 10608.9 586.614   3
  -4   2  -6 12432.5 668.646  21
  -4   2  -6 12921.7 463.065   5
  -4  -2   6 12502.8 685.596   2
   4   2   6 12617.9 490.535   6
  -4  -2   6 13071.1 674.136   3
  -4   2  -7 4587.89 383.363  21
  -4   2  -7 3783.25 211.001   5
  -4  -2   7 3740.13 375.434   2
   4   2   7 3634.64 234.632   6
  -4  -2   7 4482.80 379.177   3
  -4  -2   7 3707.87 251.527  11
   4   2   8 34744.7 1309.61   1
  -4   2  -8 34697.2 1310.32  21
   4  -2  -8 32062.2 1336.49  20
   4   2   8 34443.6 1056.09   8
  -4  -2   8 36071.7 1382.62   2
   4   2   8 33206.7 1053.37   6
  -4  -2   8 31875.2 1291.03   3
  -4  -2   8 35234.1 1085.93  11
  -4  -2   9 350.484 102.790  11
  -4  -2   9 515.050 168.108   3
   4   2   9 514.496 106.954   6
  -4   2  -9 484.824 148.128  21
   4  -2  -9 862.310 196.104  20
   4   2   9 508.815 108.910   8
   4   2   9 398.068 165.383   1
  -4   2 -10 10120.7 616.032  21
  -4  -2  10 9988.01 399.870   5
   4  -2 -10 9628.55 656.070  20
   4   2  10 9286.24 591.184   1
   4   2  10 9627.91 444.817   8
   4   2  10 9842.68 443.425   6
  -4  -2  10 9000.39 443.675  11
  -4   2 -11 19975.1 929.371  21
   4  -2 -11 16636.0 945.970  20
   4   2  11 18858.0 886.865   1
   4   2  11 19231.0 717.425   8
  -4  -2  11 18679.6 623.587   5
  -4  -2  11 19768.8 1006.05   2
   4   2  11 19661.7 712.670   6
  -4  -2  11 17973.5 693.333  11
  -4   2 -12 14530.9 796.935  21
   4  -2 -12 15338.7 893.124  20
   4   2  12 15770.4 634.396   8
   4   2  12 15195.2 782.184   1
  -4  -2  12 16139.1 901.832   2
   4   2  12 15604.9 624.101   6
  -4  -2  12 15246.5 612.781  11
  -4   2 -13 44049.2 1632.46  21
   4  -2 -13 45010.8 1762.42  20
   4   2  13 45683.5 1392.07   8
   4   2  13 39667.7 1526.37   1
   4   2  13 45334.1 1425.56  15
  -4  -2  13 45273.8 1761.37   2
   4   2  13 42953.5 1405.04  13
  -4  -2  13 43087.8 1339.10  11
   4   2  13 44908.6 1375.14   6
  -4   2 -14 11195.0 682.804  21
   4  -2 -14 10544.7 746.048  20
   4   2  14 11769.0 536.355   8
   4   2  14 10356.2 625.212   1
   4   2  14 10990.5 539.889  15
   4   2  14 10356.2 525.507  13
  -4  -2  14 9858.64 713.481   2
  -4  -2  14 9979.56 465.522  11
   4   2  14 11250.1 512.468   6
   4   2  15 3411.93 266.397   6
   4   2  15 2594.30 213.505   9
   4  -2 -15 2592.40 385.985  20
   4   2  15 2970.79 270.675   8
   4   2  15 2675.51 209.936   7
   4   2  15 3444.25 296.749  15
   4   2  15 2883.06 267.835  13
  -4  -2  15 2760.84 221.351  11
   4   2  16 270.704 118.899   6
   4  -2 -16 306.900 182.287  20
  -4  -2  16 214.461 88.4997  19
   4   2  16 440.812 142.722   8
   4   2  16 310.944 142.252  15
   4   2  16 410.924 95.4653   7
   4   2  16 264.953 129.394  13
   4  -2 -17 5709.60 526.903  20
   4   2  17 5678.31 361.661   8
   4   2  17 5663.84 370.186  15
   4   2  17 4885.70 324.161  13
   4   2  18 4110.79 296.533   8
   4   2  18 4347.35 314.895  15
   4   2  18 3702.01 263.053  13
   4   2  19 4520.49 298.400   8
   4   2  19 4540.79 311.349  15
   4   2  19 4324.15 261.552  13
   4   2  20 1995.87 194.491   8
   4   2  20 1861.51 193.445  15
   4   2  21 329.250 101.087   8
   4   2  21 554.701 121.797  15
   4   2  22 3101.80 195.752   8
   4   2  22 3682.43 218.380  15
   4   2  23 3829.07 199.582  15
   4  -3  22 727.247 107.113   8
   4  -3  21 1971.28 175.396   8
   4  -3  20 2358.46 203.151   8
   4  -3  20 2186.56 174.757  15
   4  -3  19 615.239 146.458   8
   4  -3  19 682.666 127.483  15
   4  -3  18 2471.54 237.578   8
   4  -3  18 2206.65 208.260  15
   4  -3  18 2077.85 178.952   7
   4  -3  17 3174.31 277.671   8
   4  -3  17 3293.34 230.369   7
   4  -3  17 3100.98 252.541  15
  -4  -3 -16 5854.04 570.488  21
   4  -3  16 5391.95 497.605   1
   4  -3  16 6616.16 396.214   8
   4  -3  16 5762.00 330.595   7
   4  -3  16 5261.71 341.456  15
  -4  -3 -15 9157.23 727.408  21
   4  -3  15 9877.27 681.609   1
   4  -3  15 9288.49 494.972   8
   4  -3  15 9640.50 453.931   7
   4  -3  15 10408.0 496.649  15
  -4   3  15 9027.53 412.977  11
  -4  -3 -14 129.424 148.300  21
   4  -3  14 206.682 147.208   8
   4  -3  14 252.049 126.493  15
   4  -3  14 278.076 123.989   7
   4  -3  14 35.8876 144.064   1
  -4  -3 -13 21326.2 1126.30  21
   4  -3  13 19848.8 795.982   8
   4  -3  13 20723.6 765.599   7
   4  -3  13 21137.3 1052.17   1
  -4  -3 -12 4264.45 471.924  21
   4  -3  12 4125.18 311.597   8
  -4   3  12 4174.47 267.222  16
   4  -3  12 4256.55 293.584   7
   4  -3  12 3776.45 424.650   1
  -4  -3 -11 1278.16 277.195  21
  -4   3  11 1413.19 167.303  17
   4  -3  11 1215.49 182.674   8
  -4   3  11 1397.13 160.533  16
   4  -3  11 1601.07 184.286   7
  -4   3  10 4025.03 250.079   5
   4  -3  10 3818.30 282.532   8
  -4   3  10 3799.18 269.492  17
   4  -3  10 3682.41 268.173   7
  -4   3   9 2746.80 206.122   5
   4  -3   9 2652.00 227.215   8
  -4   3   9 2491.82 220.813  17
   4  -3   9 2972.40 345.187   1
  -4   3   8 19022.2 655.962   5
   4  -3   8 17351.9 662.173   8
  -4   3   8 17320.0 675.135  17
   4  -3   8 17984.8 889.608   1
   4   3  -8 18424.5 774.044  23
  -4  -3  -7 10952.6 679.550  21
   4  -3   7 11818.0 561.924  20
  -4   3   7 11579.9 467.686   5
   4  -3   7 11276.9 472.531   8
  -4   3   7 11511.6 497.043  17
   4  -3   7 11350.8 668.457   1
   4  -3   7 10181.6 470.120   7
   4   3  -7 11333.0 572.897  23
  -4   3   6 4718.57 358.693  22
  -4  -3  -6 5460.67 443.177  21
   4  -3   6 4740.11 337.299  20
  -4   3   6 5103.50 281.105   5
   4  -3   6 4922.97 411.174   1
  -4   3   6 4727.92 295.961  17
   4  -3   6 4699.53 280.284   7
   4   3  -6 4308.67 344.371  23
  -4   3   5 1492.80 210.696  22
  -4  -3  -5 1759.64 256.801  21
   4  -3   5 2076.05 223.284  20
  -4   3   5 1449.64 150.783   5
  -4   3   5 1656.99 172.929  17
   4  -3   5 1264.48 230.023   1
   4  -3   5 1422.79 152.347   7
   4   3  -5 1590.85 212.514  23
  -4  -3  -4 2922.41 308.838  21
   4  -3   4 3150.12 281.378  20
   4  -3   4 2872.33 302.265   1
  -4   3   4 2661.80 214.806  17
   4  -3   4 3067.53 211.250   7
  -4   3   4 2956.15 279.372  22
   4   3  -4 2918.20 284.596  23
  -4   3   3 48955.3 1552.49  22
  -4  -3  -3 47828.5 1619.45  21
   4  -3   3 47745.2 1529.60  20
   4  -3   3 49289.3 1596.98   1
   4  -3   3 46102.9 1343.86   7
  -4  -3  -3 45478.9 1430.98   2
   4   3  -3 45606.3 1531.37  23
  -4   3   2 24881.3 955.485  22
   4   3  -2 23705.2 951.374  23
  -4  -3  -2 26060.8 1009.84  21
  -4   3   2 23029.9 991.884  21
   4  -3   2 24208.0 934.296  20
  -4   3   2 23729.2 777.527   5
   4  -3   2 23011.3 950.196   1
   4  -3   2 23976.9 763.860   7
  -4  -3  -2 23512.0 878.475   2
  -4  -3  -1 4667.76 365.956  21
  -4   3   1 4951.34 389.715  21
   4  -3   1 4432.37 348.923  20
  -4   3   1 4565.54 257.331   5
   4  -3   1 4349.51 343.571   1
   4  -3   1 4275.67 234.064   7
  -4  -3  -1 4643.52 328.854   2
  -4   3   1 5072.13 373.465  22
   4   3  -1 4688.05 361.412  23
  -4  -3   0 43.2381 100.169  21
  -4   3   0 137.895 106.486  21
   4  -3   0-21.0179 92.3867  20
  -4   3   0 18.7602 65.1951   5
  -4  -3   0 57.4258 84.1413   2
   4  -3   0 7.80425 59.4206   7
   4  -3   0 57.0049 98.4333   1
  -4  -3   0 92.0391 95.3574   3
   4   3   0 21.8701 93.4239  23
  -4  -3   1 4333.70 348.251  21
   4  -3  -1 4536.17 363.511  20
  -4   3  -1 4469.77 251.342   5
   4   3   1 5031.16 389.520  23
   4  -3  -1 5176.57 350.218   1
   4  -3  -1 4884.74 236.294   7
  -4  -3   1 5041.60 368.984   2
  -4  -3   1 4655.75 378.254   3
   4   3   1 4675.92 252.540   6
  -4   3  -1 4034.66 352.020  21
  -4  -3   2 23662.0 944.966  21
  -4   3  -2 24999.9 987.701  21
   4  -3  -2 23203.6 966.874  20
  -4   3  -2 23923.6 765.927   5
   4  -3  -2 22712.9 877.409   1
  -4  -3   2 24626.5 973.596   2
   4  -3  -2 23837.8 721.551   7
  -4  -3   2 24503.2 993.405   3
   4   3   2 23903.1 769.576   6
   4   3   2 22520.1 979.311  23
  -4   3  -3 44836.8 1562.68  21
  -4  -3   3 45586.7 1521.28  21
   4  -3  -3 49690.2 1619.58  20
  -4   3  -3 46090.1 1322.05   5
   4  -3  -3 44847.8 1443.13   1
  -4  -3   3 47518.6 1584.54   2
  -4  -3   3 47276.4 1592.16   3
   4   3   3 45274.5 1333.56   6
   4   3   3 48323.0 1639.02  23
  -4   3  -4 2643.84 290.333  21
  -4  -3   4 2896.46 277.118  21
   4  -3  -4 3653.99 344.889  20
  -4   3  -4 2857.66 192.257   5
   4  -3  -4 2932.57 241.857   1
  -4  -3   4 2846.39 312.785   2
   4   3   4 2990.38 206.808   6
  -4  -3   4 2848.45 301.989   3
  -4  -3   4 2923.64 217.429  11
   4   3   4 2971.94 329.633  23
  -4  -3   5 1672.88 245.278   3
  -4  -3   5 1393.62 205.120  21
  -4   3  -5 1444.86 143.102   5
  -4   3  -5 1665.63 234.454  21
   4   3   5 1865.81 164.172   6
  -4  -3   5 1763.62 261.688   2
  -4   3  -6 4859.02 381.043  21
  -4   3  -6 4300.58 238.385   5
  -4  -3   6 5070.13 424.812   2
   4   3   6 4488.54 272.009   6
  -4  -3   6 4234.91 386.821   3
  -4   3  -7 10422.8 605.272  21
   4  -3  -7 11670.5 699.354  20
  -4   3  -7 12128.6 441.587   5
   4   3   7 11861.4 475.748   8
  -4  -3   7 12288.6 710.360   2
   4   3   7 11254.2 484.254   6
  -4  -3   7 11435.2 666.899   3
  -4  -3   7 12541.5 514.104  11
   4  -3  -8 18391.1 920.793  20
   4   3   8 17123.7 639.304   8
  -4  -3   8 17827.7 916.389   2
  -4   3  -8 16590.3 809.625  21
   4   3   8 18467.7 670.029   6
  -4  -3   8 19240.7 913.581   3
  -4  -3   8 17319.1 668.090  11
   4   3   9 2370.59 302.189   1
  -4   3  -9 2520.77 294.315  21
   4  -3  -9 2760.63 352.752  20
   4   3   9 3018.83 228.100   8
  -4  -3   9 2469.11 336.525   2
  -4  -3   9 2772.53 232.165  11
   4   3   9 2902.31 227.776   6
  -4  -3   9 2769.60 339.559   3
  -4   3 -10 3574.92 348.486  21
   4   3  10 3632.17 359.288   1
   4  -3 -10 3800.12 420.933  20
   4   3  10 3598.46 263.142   8
   4   3  10 4165.41 279.313   6
  -4  -3  10 4217.90 287.209  11
  -4  -3  11 1190.60 166.659  11
   4   3  11 1304.61 168.791   6
  -4   3 -11 1673.39 249.740  21
   4  -3 -11 1162.58 251.728  20
   4   3  11 1424.97 179.568   8
   4   3  11 1394.72 236.717   1
  -4  -3  11 1102.42 251.704   2
   4  -3 -12 4752.31 483.536  20
   4   3  12 4452.89 304.272   8
   4   3  12 4222.37 378.836   1
   4   3  12 4601.98 325.021  15
  -4  -3  12 3658.58 443.715   2
   4   3  12 4248.44 324.812  13
   4   3  12 4725.26 310.433   6
  -4  -3  12 4133.43 289.582  11
   4  -3 -13 20201.1 1066.06  20
   4   3  13 19225.1 746.034   9
   4   3  13 20826.6 787.240   6
   4   3  13 22888.9 809.902   8
   4   3  13 18751.0 880.768   1
   4   3  13 20571.2 806.003  15
  -4  -3  13 21078.0 1090.31   2
   4   3  13 22447.3 834.764  13
  -4  -3  13 20847.3 761.655  11
  -4  -3  14 235.685 146.838   2
   4   3  14 220.759 105.226   9
   4   3  14 168.692 100.642   6
   4  -3 -14 230.982 138.275  20
   4   3  14 237.124 121.590   8
   4   3  14 266.572 140.340  15
   4   3  14 372.543 144.778  13
  -4  -3  14 209.403 99.7975  11
   4  -3 -15 9014.18 681.761  20
   4   3  15 9537.77 430.013   9
   4   3  15 9759.70 487.425   8
   4   3  15 9998.57 505.914  15
   4   3  15 9053.02 478.574  13
  -4  -3  15 9168.49 696.729   2
   4   3  15 9302.92 471.487   6
   4   3  16 5795.38 353.676   6
   4   3  16 5235.55 292.986   9
   4  -3 -16 5183.76 514.086  20
  -4  -3  16 5334.48 297.334  19
   4   3  16 5911.15 362.480   8
   4   3  16 6522.86 385.623  15
   4   3  16 6046.24 366.232  13
   4   3  17 3200.49 256.267   6
   4   3  17 3025.80 262.520   8
   4   3  17 3570.61 284.908  15
   4   3  17 3360.43 260.767  13
   4   3  17 2751.99 230.427  12
   4   3  18 1995.49 210.169   8
   4   3  18 2393.98 229.013  15
   4   3  18 2200.14 203.817  13
   4   3  18 1797.53 178.169  12
   4   3  19 875.566 154.424   8
   4   3  19 722.681 139.934  15
   4   3  19 751.834 121.461  13
   4   3  20 2264.07 195.949   8
   4   3  20 2272.26 195.801  15
   4   3  21 1845.52 165.064   8
   4   3  21 1794.47 165.298  15
   4   3  22 811.639 106.033   8
   4   3  22 636.871 99.6644  15
   4   3  23 882.962 88.4246  15
   4  -4  22 2205.64 148.408   8
   4  -4  21 4527.24 245.665   8
   4  -4  20 132.260 89.9680   8
   4  -4  19 116.369 104.661   8
   4  -4  18 816.777 160.970   8
   4  -4  18 1117.09 133.736   7
   4  -4  18 937.351 132.718  15
   4  -4  17 10957.3 530.470   8
   4  -4  17 11750.4 481.708  15
   4  -4  17 10727.6 462.296   7
   4  -4  16 20206.7 781.009   8
   4  -4  16 19170.9 711.811  15
   4  -4  16 19164.8 707.685   7
  -4  -4 -15 10111.7 760.508  21
   4  -4  15 9370.64 699.774   1
   4  -4  15 10367.7 525.098   8
   4  -4  15 10937.4 486.495   7
   4  -4  15 11018.6 493.389  15
  -4   4  15 10095.7 436.172  11
   4  -4  14 11093.6 745.408   1
   4  -4  14 11141.2 551.129   8
   4  -4  14 10897.3 502.939   7
   4  -4  14 10673.9 505.010  15
   4  -4  13 20717.2 1071.02   1
   4  -4  13 21841.1 831.571   8
  -4   4  13 20679.2 746.020  17
   4  -4  13 20495.4 776.641   7
   4  -4  12 25963.6 939.632   8
  -4   4  12 25071.8 878.075  17
   4  -4  12 25529.2 900.639   7
   4  -4  11 5612.76 355.592   8
  -4   4  11 4842.45 319.426  17
   4  -4  11 5087.15 331.337   7
  -4  -4 -10 11530.6 772.682  21
   4  -4  10 13554.7 573.810   8
  -4   4  10 11985.6 542.097  17
   4  -4  10 11686.1 744.214   1
  -4  -4  -9 8918.07 653.299  21
   4  -4   9 9256.51 460.759   8
  -4   4   9 10576.4 481.697  17
   4  -4   9 10601.9 681.887   1
   4   4  -9 8898.69 558.119  23
  -4  -4  -8 32651.7 1371.59  21
   4  -4   8 32671.8 1206.90  20
   4  -4   8 32196.8 1054.77   8
  -4   4   8 31640.7 1069.65  17
   4  -4   8 32755.0 1050.32   7
   4  -4   8 31431.0 1322.92   1
   4   4  -8 33431.4 1243.43  23
  -4  -4  -7 1776.79 285.868  21
   4  -4   7 1793.36 238.636  20
   4  -4   7 1898.25 283.831   1
  -4   4   7 1959.86 186.240   5
  -4   4   7 2069.33 207.742  17
   4  -4   7 1909.93 185.425   7
   4   4  -7 1869.54 255.324  23
  -4   4   6 7372.51 493.914  22
  -4  -4  -6 8368.20 567.850  21
   4  -4   6 7422.56 474.927  20
  -4   4   6 6886.09 356.113   5
  -4   4   6 7615.54 395.015  17
   4  -4   6 6992.24 357.779   7
   4  -4   6 7217.24 517.937   1
   4   4  -6 6807.34 473.143  23
  -4   4   5 3507.19 336.476  22
  -4  -4  -5 3261.02 351.463  21
   4  -4   5 2609.96 288.087  20
  -4   4   5 3300.23 229.815   5
  -4   4   5 2800.49 233.318  17
   4  -4   5 3212.33 228.174   7
   4  -4   5 3182.13 336.173   1
   4   4  -5 3445.81 335.370  23
  -4   4   4 21217.8 929.851  22
  -4  -4  -4 19531.9 934.107  21
   4  -4   4 22617.3 918.702  20
   4  -4   4 21923.4 734.145   7
   4  -4   4 21118.7 937.144   1
   4   4  -4 21548.1 942.553  23
  -4   4   3 11068.4 609.062  22
  -4  -4  -3 10117.7 599.437  21
   4  -4   3 10589.6 585.095  20
  -4  -4  -3 9803.78 502.476   2
   4  -4   3 10048.1 581.761   1
   4  -4   3 10692.2 434.953   7
   4   4  -3 10879.2 612.330  23
  -4  -4  -2 30770.8 1149.37  21
   4  -4   2 28516.4 1119.46  20
  -4   4   2 28520.7 1127.28  22
  -4   4   2 28500.7 919.227   5
  -4   4   2 28688.0 952.068  17
   4  -4   2 27891.5 1095.80   1
  -4  -4  -2 28161.2 1041.77   2
   4  -4   2 29324.5 900.407   7
   4   4  -2 28412.4 1134.44  23
  -4   4   1 9769.66 583.976  22
   4  -4   1 8862.89 545.080  20
  -4   4   1 9251.30 410.461   5
  -4   4   1 9576.78 441.001  17
   4  -4   1 10735.5 555.441   1
  -4  -4  -1 9390.40 521.596   2
   4  -4   1 9989.22 397.995   7
  -4  -4  -1 8715.85 569.600   3
   4   4  -1 9589.97 582.198  23
  -4  -4  -1 9929.57 559.326  21
  -4  -4   0 415.186 97.8800  11
   4  -4   0 329.423 147.860   1
  -4  -4   0 460.050 134.639  21
  -4   4   0 360.631 139.037  21
   4  -4   0 657.130 165.642  20
  -4   4   0 449.686 103.264   5
  -4   4   0 294.991 97.4875  17
  -4   4   0 333.341 152.928  22
   4  -4   0 382.510 96.1770   7
   4   4   0 390.518 152.901  23
  -4  -4   0 411.904 129.405   2
  -4  -4   0 597.895 157.351   3
  -4  -4   1 9152.67 516.504  21
  -4   4  -1 9007.96 542.975  21
   4  -4  -1 8894.39 559.639  20
  -4   4  -1 9213.10 401.820   5
  -4   4  -1 8845.34 416.918  17
   4  -4  -1 9146.24 492.936   1
  -4  -4   1 9205.98 544.576   2
   4  -4  -1 9317.23 369.863   7
  -4  -4   1 9370.94 575.252   3
   4   4   1 9269.61 406.939   6
  -4  -4   1 8911.67 409.388  11
   4   4   1 10441.4 608.639  23
  -4  -4   2 28654.9 1049.75  21
  -4   4  -2 28849.4 1101.28  21
   4  -4  -2 28610.6 1143.19  20
  -4   4  -2 29040.2 894.533   5
  -4   4  -2 27544.8 914.445  17
  -4  -4   2 26810.0 1103.37   2
   4  -4  -2 29180.7 1000.36   1
   4  -4  -2 27534.1 832.020   7
  -4  -4   2 28366.4 1141.42   3
   4   4   2 28962.1 905.461   6
  -4   4  -2 25554.6 891.630  23
  -4  -4   2 27044.8 906.385  11
   4   4   2 28248.0 1163.55  23
  -4  -4   3 9863.06 526.379  21
  -4   4  -3 10589.8 577.191  21
   4  -4  -3 9593.68 603.644  20
  -4   4  -3 10012.6 419.774   5
  -4   4  -3 9581.21 439.619  17
  -4  -4   3 10559.5 617.991   2
   4  -4  -3 9762.68 472.546   1
   4   4   3 10336.5 440.761   6
  -4  -4   3 11775.1 645.301   3
   4   4   3 9479.66 431.054  13
  -4  -4   3 9994.72 445.277  11
   4   4   3 10173.7 634.525  23
  -4   4  -4 22388.2 909.296  21
  -4  -4   4 20489.8 830.383  21
  -4   4  -4 20851.8 707.073   5
  -4   4  -4 20323.4 729.472  17
  -4  -4   4 20265.1 942.733   2
   4   4   4 21950.8 744.296   6
  -4  -4   4 21223.3 961.683   3
   4   4   4 21923.1 754.096  13
  -4  -4   4 20374.9 743.341  11
   4   4   4 20895.3 998.826  23
  -4   4  -5 2796.08 289.999  21
  -4  -4   5 2936.40 267.163  21
   4   4   5 2561.73 194.473   8
  -4   4  -5 3102.49 205.827   5
  -4   4  -5 2710.28 211.141  17
   4   4   5 2892.99 226.415   4
  -4  -4   5 3528.84 363.981   2
   4   4   5 3307.88 236.833   6
   4   4   5 2867.94 233.253  13
  -4  -4   5 2915.75 328.470   3
   4   4   5 2665.31 340.982  23
  -4  -4   5 2794.75 229.337  11
  -4   4  -6 7057.35 461.161  21
   4  -4  -6 5803.44 498.595  20
   4   4   6 7048.87 340.538   8
  -4   4  -6 7412.96 330.270   5
   4   4   6 6602.76 372.248   4
  -4  -4   6 7235.18 534.581   2
   4   4   6 6530.49 369.350  13
   4   4   6 7238.59 366.462   6
  -4   4  -7 1706.02 235.719  21
   4  -4  -7 1514.13 268.088  20
   4   4   7 1651.62 172.060   8
   4   4   7 1479.60 178.166   4
   4   4   7 2055.98 204.287  13
   4   4   7 1672.31 181.380   6
  -4  -4   7 1668.07 190.275  11
  -4  -4   7 1835.42 289.907   2
  -4   4  -8 30719.8 1178.97  21
   4  -4  -8 30812.9 1330.80  20
   4   4   8 33308.2 1029.08   8
   4   4   8 29896.1 1094.24   4
  -4  -4   8 32477.5 1358.26   2
   4   4   8 31933.0 1078.57  13
   4   4   8 31920.3 1050.10   6
  -4  -4   8 33389.2 1066.74  11
   4   4   9 8469.38 567.329   1
   4  -4  -9 9757.15 671.930  20
   4   4   9 9544.87 448.968   8
  -4  -4   9 10293.7 695.617   2
   4   4   9 10544.1 505.888  13
   4   4   9 9888.20 469.151   6
  -4  -4   9 10248.6 479.145  11
   4   4  10 11548.4 661.220   1
   4  -4 -10 10614.6 731.680  20
   4   4  10 12024.5 522.488   8
   4   4  10 11456.5 517.461  15
   4   4  10 11928.8 562.306  13
   4   4  10 11890.1 532.339   6
  -4  -4  10 12511.2 548.221  11
   4  -4 -11 4696.50 489.479  20
   4   4  11 5697.29 345.856   9
   4   4  11 5900.36 444.435   1
   4   4  11 5531.02 339.491   8
   4   4  11 5271.70 341.464  15
   4   4  11 6068.64 357.280   6
  -4  -4  11 5904.06 353.448  11
   4  -4 -12 24583.0 1217.93  20
   4   4  12 26550.9 930.340   9
   4   4  12 27113.3 940.551   8
   4   4  12 26163.1 936.992  15
  -4  -4  12 26648.2 1271.46   2
   4   4  12 27719.4 950.747   6
   4  -4 -13 20100.5 1060.59  20
   4   4  13 20441.0 758.963   9
   4   4  13 20889.4 781.808   8
   4   4  13 20888.3 786.183  15
  -4  -4  13 19536.5 1082.94   2
   4   4  13 20487.7 810.594  13
   4   4  13 19491.8 770.647   6
   4   4  14 11101.7 495.515   9
   4  -4 -14 11155.9 760.745  20
   4   4  14 11025.7 527.430   8
   4   4  14 11173.9 529.203  15
  -4  -4  14 10496.3 754.429   2
   4   4  14 11747.5 555.623  13
   4   4  14 10735.4 516.459   6
   4   4  15 11399.9 484.808   9
   4  -4 -15 10451.5 735.860  20
   4   4  15 10989.4 526.978   8
  -4  -4  15 10693.3 458.496  19
   4   4  15 12124.1 542.706  15
  -4  -4  15 10281.9 742.295   2
   4   4  15 12397.8 557.231  13
   4   4  15 11435.5 531.153   6
   4   4  16 17906.9 656.059   9
   4   4  16 19784.4 744.791   8
   4   4  16 20312.7 751.271  15
   4   4  16 20295.6 757.589  13
   4   4  16 18324.8 719.715  12
   4   4  17 13135.2 549.505   8
   4   4  17 12069.1 533.984  15
   4   4  17 11696.1 525.087  13
   4   4  17 11595.5 508.137  12
   4   4  18 1243.51 167.894   8
   4   4  18 913.048 133.341  12
   4   4  18 1112.59 155.966  15
   4   4  18 1478.62 167.519  13
   4   4  19 128.227 95.1412   8
   4   4  19 127.398 101.148  15
   4   4  19 119.599 82.0121  13
   4   4  20 258.518 103.683   8
   4   4  20 216.042 92.3055  15
   4   4  21 4520.35 236.438   8
   4   4  21 4357.22 231.449  15
   4   4  22 2347.29 146.014   8
   4   4  22 2058.05 137.128  15
   4  -5  22 2141.60 128.386   8
   4  -5  21-7.27909 60.3301   8
   4  -5  20 813.686 118.890   8
   4  -5  19 606.795 128.058   8
   4  -5  18 79.5078 107.244   8
   4  -5  18 90.5981 73.3384   7
   4  -5  17 383.367 127.881   8
   4  -5  17 109.153 76.8203   7
   4  -5  16 16092.3 682.137   8
   4  -5  16 17635.3 647.338   7
   4  -5  15 468.165 143.176   8
   4  -5  15 332.633 96.6006  15
   4  -5  15 460.957 124.431   7
  -4  -5 -14 3754.98 457.488  21
   4  -5  14 3515.15 417.866   1
   4  -5  14 3929.79 309.132   8
   4  -5  14 3539.09 267.889   7
   4  -5  14 3629.39 254.754  15
  -4  -5 -13 10779.5 772.816  21
   4  -5  13 10926.2 533.884   8
  -4   5  13 10217.8 474.642  17
  -4   5  13 9859.80 446.550  16
   4  -5  13 11467.0 511.934   7
   4  -5  13 10120.5 466.159  15
  -4  -5 -12 55855.1 2106.88  21
   4  -5  12 53904.9 2029.21   1
   4  -5  12 54997.8 1687.98   8
  -4   5  12 55528.3 1642.31  17
   4  -5  12 53859.3 1644.80   7
  -4  -5 -11 18760.1 1048.88  21
   4  -5  11 18913.6 1017.65   1
   4  -5  11 19216.5 759.893   8
  -4   5  11 18551.7 730.564  17
  -4  -5 -10 273279. 7309.17  21
   4  -5  10 266773. 6804.50   8
  -4   5  10 267033. 6790.39  17
   4  -5  10 250847. 7195.74   1
   4   5 -10 255989. 7055.21  23
  -4  -5  -9 17205.6 956.902  21
   4  -5   9 16681.1 682.267   8
  -4   5   9 16550.7 689.133  17
   4  -5   9 17535.3 684.613   7
   4   5  -9 16621.5 855.296  23
   4  -5   9 18214.9 947.290   1
  -4  -5  -8 18966.9 989.927  21
   4  -5   8 17943.2 873.416  20
  -4   5   8 18263.7 732.689  17
   4  -5   8 19459.8 722.309   7
   4  -5   8 19683.0 978.195   1
   4   5  -8 17563.6 889.927  23
  -4  -5  -7 40682.2 1571.49  21
   4  -5   7 38977.8 1460.10  20
  -4   5   7 38618.3 1268.79  17
   4  -5   7 40055.8 1239.47   7
   4  -5   7 39882.7 1531.51   1
   4   5  -7 38158.1 1484.24  23
  -4   5   6 50287.9 1784.58  22
  -4  -5  -6 49921.5 1813.26  21
   4  -5   6 52891.7 1762.56  20
  -4   5   6 49152.8 1533.61  17
   4  -5   6 50949.7 1496.13   7
   4  -5   6 48294.5 1766.46   1
   4   5  -6 49133.2 1760.17  23
  -4   5   5 10658.5 658.382  22
  -4  -5  -5 9914.85 638.214  21
   4  -5   5 9702.56 600.183  20
  -4   5   5 10651.9 502.747  17
   4  -5   5 11097.5 472.311   7
   4  -5   5 11208.8 663.322   1
   4   5  -5 9484.05 621.279  23
  -4   5   4 10645.7 648.476  22
  -4  -5  -4 9792.86 610.268  21
   4  -5   4 10705.5 634.437  20
   4  -5   4 9726.01 442.388   7
   4  -5   4 10189.6 614.030   1
   4   5  -4 9935.31 631.247  23
  -4   5   3 3510.51 372.671  22
  -4  -5  -3 3619.99 353.254  21
   4   5  -3 3242.71 225.403   9
   4  -5   3 3493.69 358.240  20
  -4  -5  -3 3657.05 310.136   2
  -4   5   3 4056.00 287.134  17
   4  -5   3 3999.00 248.981   7
   4  -5   3 3280.05 333.259   1
   4   5  -3 4024.23 393.395  23
  -4   5   2 5995.09 474.023  22
  -4  -5  -2 6274.33 444.033  21
   4   5  -2 5399.77 301.747   9
   4  -5   2 5738.89 458.593  20
  -4   5   2 6225.70 334.515   5
  -4  -5  -2 6354.02 426.061   2
  -4   5   2 5631.80 343.558  17
   4  -5   2 5752.92 305.914   7
   4  -5   2 5849.65 427.503   1
   4   5  -2 5734.82 474.606  23
  -4  -5  -1 15074.3 732.576  21
   4   5  -1 14430.8 572.983   9
   4  -5   1 16458.7 817.747  20
  -4   5   1 15207.0 600.063   5
  -4  -5  -1 14678.4 730.500   2
  -4   5   1 15374.2 625.353  17
  -4   5   1 16536.6 836.911  22
   4   5  -1 16686.1 848.326  23
   4  -5   1 16052.2 570.264   7
   4  -5   1 16148.8 737.526   1
  -4  -5   0 11648.8 615.968  21
   4  -5   0 13368.4 724.435  20
   4   5   0 11645.3 500.800   9
  -4   5   0 13026.7 521.063   5
  -4  -5   0 11771.7 657.795   2
  -4   5   0 12871.5 546.729  17
   4  -5   0 12650.2 480.236   7
   4  -5   0 13047.9 625.615   1
   4   5   0 13002.1 746.883  23
  -4   5   0 12879.3 734.616  22
  -4  -5   1 15899.2 706.195  21
   4  -5  -1 15534.6 806.005  20
  -4  -5   1 14659.1 762.593   2
  -4   5  -1 15882.6 618.152  17
   4  -5  -1 15389.5 537.955   7
   4   5   1 14447.7 607.815   4
   4   5   1 15286.4 593.482   6
   4  -5  -1 13070.8 641.601   1
   4   5   1 15229.0 568.570  13
   4   5   1 15462.3 830.815  23
  -4   5  -1 16744.8 850.746  22
  -4   5  -2 6849.63 528.164  22
  -4  -5   2 5252.02 368.992  21
   4  -5  -2 6125.87 484.299  20
  -4  -5   2 5553.86 449.451   2
  -4   5  -2 5630.07 332.202  17
   4   5   2 5212.63 331.641   4
   4  -5  -2 5664.53 271.434   7
   4   5   2 5487.62 316.853   6
   4   5   2 5695.04 312.221  13
  -4  -5   2 5872.89 331.142  11
   4   5   2 6073.94 505.455  23
  -4  -5   3 3620.41 290.763  21
  -4  -5   3 3735.49 380.800   2
  -4   5  -3 4343.10 279.282  17
   4   5   3 3116.92 255.581   4
   4   5   3 3974.76 420.393  23
   4   5   3 4193.25 269.959   6
   4   5   3 3496.56 248.583  13
  -4   5  -3 3013.01 259.603  23
  -4  -5   3 3735.51 267.439  11
  -4   5  -4 10009.3 554.342  21
   4   5   4 9937.32 411.511   8
  -4  -5   4 8886.05 615.178   2
  -4   5  -4 9790.29 448.229  17
   4   5   4 9165.67 472.305   4
   4   5   4 10305.0 690.617  23
   4   5   4 10426.8 462.024   6
   4   5   4 9900.65 454.319  13
  -4   5  -4 8863.57 490.028  23
  -4  -5   4 9435.54 454.779  11
  -4   5  -5 10814.2 568.430  21
   4  -5  -5 10693.6 687.645  20
   4   5   5 10050.3 428.870   8
  -4   5  -5 10240.5 456.780  17
  -4  -5   5 10278.2 661.760   2
   4   5   5 9225.97 487.153   4
   4   5   5 10236.2 471.437  13
   4   5   5 10532.9 479.332   6
  -4   5  -5 9014.88 519.375  23
  -4  -5   5 9775.44 472.655  11
   4   5   5 10744.8 719.340  23
   4  -5  -6 51034.9 1858.69  20
   4   5   6 48326.7 1495.65   9
   4   5   6 51124.1 1452.76   8
  -4   5  -6 47537.1 1453.37  17
   4   5   6 49957.2 1564.88   4
  -4  -5   6 49774.2 1843.94   2
   4   5   6 49377.0 1502.61  13
   4   5   6 49540.6 1495.55   6
  -4  -5   6 49439.3 1793.22   3
   4  -5  -7 41701.4 1590.50  20
   4   5   7 38853.8 1198.66   8
  -4  -5   7 36927.9 1538.95   2
   4   5   7 37955.7 1247.12  13
   4   5   7 40283.6 1246.56   6
  -4  -5   7 38777.4 1520.65   3
  -4  -5   7 38332.0 1247.15  11
   4  -5  -8 17041.5 953.615  20
   4   5   8 17982.9 716.582   9
   4   5   8 18612.9 688.602   8
  -4  -5   8 19226.4 1004.28   2
   4   5   8 18440.5 731.582  13
   4   5   8 18093.6 714.581   6
  -4  -5   8 19470.5 976.574   3
   4  -5  -9 16942.0 955.716  20
   4   5   9 17300.5 697.583   9
   4   5   9 17033.8 668.676   8
  -4  -5   9 18172.4 989.331   2
   4   5   9 16951.7 649.456  15
   4   5   9 17735.1 723.992  13
   4   5   9 18557.9 712.041   6
  -4  -5   9 18120.4 955.985   3
   4   5  10 251146. 6975.50   1
   4  -5 -10 267744. 7282.54  20
   4   5  10 257222. 6785.57   9
   4   5  10 265008. 6765.70   8
   4   5  10 265482. 6732.74  15
   4   5  10 267559. 6828.63  13
   4   5  10 272350. 6801.94   6
   4   5  11 18873.6 739.718   9
   4  -5 -11 18543.7 1015.37  20
   4   5  11 19222.5 737.172   8
   4   5  11 18905.9 713.784  15
   4   5  11 19573.5 783.712  13
   4   5  11 20079.6 759.856   6
   4   5  12 57892.5 1694.69   9
   4  -5 -12 58435.9 2104.45  20
   4   5  12 55345.8 1681.55   8
   4   5  12 56589.9 1658.82  15
  -4  -5  12 52299.3 2079.66   2
   4   5  13 10745.8 489.001   9
   4  -5 -13 9829.93 717.613  20
   4   5  13 10027.0 489.141   8
  -4  -5  13 9567.93 428.678  19
   4   5  13 10772.3 485.007  15
  -4  -5  13 9976.93 736.298   2
  -4  -5  14 2826.05 393.682   2
   4   5  14 3146.61 247.607   9
   4  -5 -14 2767.03 383.789  20
   4   5  14 3575.21 278.431   8
  -4  -5  14 3332.26 228.712  19
   4   5  14 3811.70 273.418  15
   4   5  14 3990.09 303.623  13
   4   5  14 3664.30 293.585  12
   4   5  15 482.268 113.643   9
   4   5  15 584.460 154.024   8
   4   5  15 393.995 121.578  15
   4   5  15 601.780 152.545  13
   4   5  15 274.067 127.650  12
   4   5  16 17315.1 669.841   8
   4   5  16 16508.0 601.239   9
   4   5  16 17277.5 650.871  15
   4   5  16 17386.9 679.982  13
   4   5  16 16228.7 657.584  12
   4   5  17 201.957 98.0028   6
   4   5  17 258.804 111.487   8
   4   5  17 238.117 98.0475  15
   4   5  17 353.978 118.528  13
   4   5  17 98.9562 94.3207  12
   4   5  18 22.5045 70.9252   6
   4   5  18-11.6004 94.6425   8
   4   5  18 116.509 83.5821  15
   4   5  18 134.604 92.9797  13
   4   5  18 62.3473 79.1235  12
   4   5  19 735.292 123.817   8
   4   5  19 451.137 97.6935  15
   4   5  19 590.426 97.4015  12
   4   5  20 841.786 113.085   8
   4   5  20 684.992 98.5489  15
   4   5  21 70.9331 67.8129   8
   4   5  21 40.6459 48.8294  15
   4  -6  21 1395.75 106.388   8
   4  -6  20 736.673 102.693   8
   4  -6  19 2431.39 186.545   8
   4  -6  18 4684.26 283.110   8
   4  -6  17 2875.76 232.100   8
   4  -6  17 2489.99 194.981   7
   4  -6  16 2982.47 249.574   8
   4  -6  16 2900.75 221.052   7
   4  -6  15 109.224 113.229   8
   4  -6  15 206.957 97.6419   7
   4  -6  14 3034.62 272.782   8
   4  -6  14 2980.85 248.863   7
  -4  -6 -13 20934.7 1109.02  21
   4  -6  13 20832.0 810.647   8
  -4   6  13 20993.0 762.063  17
   4  -6  13 18932.5 1044.64   1
   4  -6  13 20837.6 780.414   7
  -4  -6 -12 6051.92 563.493  21
   4  -6  12 5074.47 524.343   1
   4  -6  12 6232.36 390.554   8
  -4   6  12 6323.05 365.603  17
  -4  -6 -11 7424.96 624.863  21
   4  -6  11 7958.54 629.056   1
   4  -6  11 7652.79 440.080   8
  -4   6  11 8486.07 438.342  17
  -4  -6 -10 78082.0 2546.97  21
   4  -6  10 74397.2 2487.73   1
   4  -6  10 72498.6 2109.90   8
  -4   6  10 69327.7 2097.47  17
   4  -6  10 71542.3 2086.09   7
   4   6 -10 70538.0 2383.80  23
  -4  -6  -9 26855.8 1279.06  21
   4  -6   9 31700.6 1343.72   1
  -4   6   9 29070.0 1028.37  17
   4  -6   9 28983.6 1008.70   7
   4   6  -9 28913.5 1264.30  23
  -4  -6  -8 8038.26 620.571  21
   4  -6   8 7703.26 599.205   1
  -4   6   8 8326.03 453.206  17
   4  -6   8 7291.73 409.083   7
   4   6  -8 6805.70 562.070  23
  -4  -6  -7 38402.2 1530.19  21
   4  -6   7 37850.6 1495.45  20
  -4   6   7 38800.0 1276.88  17
   4  -6   7 38821.9 1228.56   7
   4  -6   7 37232.0 1513.07   1
   4   6  -7 37843.4 1532.36  23
  -4   6   6 1888.86 314.179  22
  -4  -6  -6 1686.02 281.756  21
   4  -6   6 1410.58 255.950  20
  -4   6   6 1539.25 207.333  17
   4  -6   6 1478.71 180.699   7
   4  -6   6 1775.43 284.497   1
   4   6  -6 1793.10 303.550  23
   4  -6   5 10667.8 678.232   1
  -4   6   5 10494.9 698.439  22
  -4  -6  -5 10780.2 667.201  21
   4  -6   5 10434.5 668.851  20
   4  -6   5 11879.1 504.215   7
   4   6  -5 10582.0 704.815  23
   4  -6   4 17407.0 860.032   1
  -4   6   4 17459.1 918.180  22
  -4  -6  -4 14760.3 801.446  21
   4  -6   4 16243.7 869.452  20
   4  -6   4 17261.3 650.052   7
   4   6  -4 17407.5 922.198  23
  -4   6   3 7023.43 561.662  22
  -4  -6  -3 7380.61 502.969  21
   4   6  -3 6587.87 340.647   9
   4  -6   3 7565.73 553.173  20
  -4  -6  -3 6290.72 449.455   2
  -4   6   3 6473.27 396.947  17
   4  -6   3 6955.71 496.935   1
   4  -6   3 7318.30 365.380   7
  -4  -6  -3 7348.68 555.351   3
   4   6  -3 7048.11 567.899  23
  -4   6   2 9089.76 632.015  22
  -4  -6  -2 7887.90 517.467  21
   4   6  -2 8152.28 393.852   9
   4  -6   2 8733.37 604.441  20
  -4  -6  -2 8291.15 532.079   2
  -4   6   2 8590.89 451.196  17
   4  -6   2 8509.76 543.548   1
   4  -6   2 9243.79 412.697   7
  -4  -6  -2 9270.99 629.391   3
   4   6  -2 8277.33 618.817  23
  -4   6   1-67.9661 153.467  22
  -4  -6  -1 22.3256 80.1298  21
   4   6  -1 97.9327 85.0826   9
   4  -6   1 96.1822 128.646  20
  -4   6   1-15.8063 94.0761  17
   4  -6   1 154.865 96.5702   7
   4  -6   1-46.3830 101.942   1
   4   6  -1 70.5017 154.946  23
  -4  -6  -1 161.529 124.737   2
  -4  -6  -1 64.3360 110.536   3
  -4  -6   0 13884.2 665.909  21
  -4   6   0 14349.1 837.450  22
   4  -6   0 14024.0 677.185   1
   4   6   0 14200.6 581.673   9
   4  -6   0 14067.9 802.018  20
  -4  -6   0 14277.1 768.549   2
  -4   6   0 15178.9 629.720  17
   4  -6   0 14537.7 546.983   7
  -4  -6   0 14736.3 812.721   3
   4   6   0 15396.0 870.777  23
   4   6   1 27.9331 94.8848   6
   4   6   1 79.2495 99.6222   9
   4  -6  -1 99.0307 141.007  20
  -4   6  -1-35.2246 136.546  22
  -4   6  -1-30.3523 110.060  17
  -4  -6   1 222.795 154.663   3
   4  -6  -1 48.5881 70.4758   7
   4   6   1-11.4311 78.5585  13
  -4  -6   1 59.9431 111.957   2
   4   6   1-36.2155 159.184  23
  -4   6  -2 8882.21 645.673  22
   4   6   2 8844.05 432.204   9
  -4  -6   2 9008.70 613.800   2
  -4   6  -2 8463.80 438.267  17
   4   6   2 7833.23 464.218   4
   4   6   2 8647.26 437.758   6
   4   6   2 9008.29 416.544  13
  -4  -6   2 8984.21 615.003   3
   4   6   2 8483.18 644.873  23
   4   6   3 7901.81 404.186   9
  -4  -6   3 7316.17 555.507   2
  -4   6  -3 7011.62 389.841  17
   4   6   3 6511.57 423.986   4
   4   6   3 7294.24 389.287   6
   4   6   3 7330.63 378.856  13
  -4  -6   3 6506.87 526.696   3
   4   6   3 7369.32 600.041  23
  -4   6  -3 6129.35 553.837  22
   4   6   4 17033.7 670.833   9
   4  -6  -4 17222.0 928.712  20
  -4  -6   4 14745.9 864.937   2
  -4   6  -4 16047.7 654.267  17
   4   6   4 16891.3 655.237  13
   4   6   4 17341.9 674.445   6
  -4  -6   4 17816.0 910.462   3
   4   6   4 16249.6 957.154  23
   4   6   5 10213.1 496.955   9
   4  -6  -5 11486.2 737.482  20
   4   6   5 10955.3 464.137   8
  -4  -6   5 11597.8 739.016   2
  -4   6  -5 10247.2 480.108  17
   4   6   5 10826.9 498.175  13
   4   6   5 11726.3 519.465   6
  -4  -6   5 9353.37 652.351   3
  -4   6  -5 9581.33 558.461  23
   4   6   5 11785.9 789.331  23
  -4  -6   6 1516.63 273.187   3
   4   6   6 1579.37 200.239   9
   4  -6  -6 1510.70 300.616  20
   4   6   6 1407.19 169.681   8
  -4   6  -6 1475.90 171.501  17
   4   6   6 1269.78 290.374  23
   4   6   6 1941.09 214.367  13
   4   6   6 1737.94 201.748   6
  -4  -6   6 1476.95 283.726   2
  -4   6  -6 1804.48 247.755  23
   4  -6  -7 40189.6 1607.42  20
   4   6   7 38950.0 1203.89   8
  -4  -6   7 39102.7 1607.13   2
   4   6   7 39009.1 1254.64  13
   4   6   7 38668.6 1248.81   6
  -4  -6   7 40542.4 1561.78   3
  -4   6  -7 34084.3 1365.43  23
   4  -6  -8 9201.55 671.061  20
   4   6   8 7553.53 394.999   8
  -4  -6   8 7995.41 643.234   2
   4   6   8 7199.35 419.608  13
  -4   6  -8 7294.04 531.063  23
  -4  -6   8 7170.26 576.605   3
   4   6   9 28184.6 993.054   9
   4  -6  -9 27494.4 1307.22  20
   4   6   9 29085.6 968.364   8
  -4  -6   9 27221.9 1312.05   2
   4   6   9 28652.4 1010.28  13
  -4   6  -9 26909.5 1174.72  23
  -4  -6   9 28552.1 1276.49   3
   4   6  10 74604.7 2126.11   9
   4  -6 -10 67944.7 2475.09  20
   4   6  10 75290.8 2097.90   8
   4   6  10 74060.3 2148.83  13
  -4   6 -10 68516.0 2368.00  23
   4   6  11 7976.36 427.952   9
   4   6  11 7837.32 418.626   8
  -4  -6  11 7888.50 392.765  18
   4   6  11 7842.81 446.977  13
  -4   6 -11 7003.32 561.779  23
   4   6  12 6383.37 371.046   9
   4  -6 -12 5369.82 524.751  20
  -4  -6  12 6078.11 314.622  19
  -4  -6  12 5335.22 307.472  18
  -4  -6  12 5505.65 551.142   2
   4   6  12 6213.34 394.141  13
  -4   6 -12 6085.73 532.839  23
   4   6  12 6466.13 367.781   8
   4   6  13 21417.5 760.642   9
   4  -6 -13 20275.9 1042.73  20
   4   6  13 20802.4 763.777   8
   4   6  13 19260.8 697.012  15
  -4  -6  13 20197.6 1080.11   2
   4   6  13 19190.0 784.397  12
  -4   6 -13 18884.8 995.587  23
   4   6  14 3285.56 246.296   9
   4   6  14 3089.99 257.357   8
   4   6  14 2891.82 219.341  15
   4   6  14 3247.70 272.596  12
   4   6  14 3308.00 258.903   6
   4   6  15 269.826 109.344   6
   4   6  15 466.942 143.109   8
   4   6  15 221.365 90.9307  15
   4   6  15 237.420 121.210  13
   4   6  15 174.048 119.432  12
   4   6  16 2718.81 222.298   8
   4   6  16 2360.98 188.799  15
   4   6  16 2692.58 231.307  13
   4   6  16 2890.31 237.124  12
   4   6  16 2595.08 214.803   6
   4   6  17 2781.54 207.757   6
   4   6  17 2780.45 212.997   8
   4   6  17 2453.99 179.705  15
   4   6  17 2529.46 205.086  12
   4   6  18 4445.61 255.224   8
   4   6  18 4220.30 222.528  15
   4   6  19 2448.58 172.311   8
   4   6  19 2249.47 137.466  15
   4   6  19 2270.10 153.538  12
   4  -7  20 1901.14 120.471   8
   4  -7  19 12461.1 439.418   8
   4  -7  18 1311.01 139.781   8
   4  -7  17 4989.52 285.683   8
   4  -7  16 818.576 139.236   8
   4  -7  15 7079.44 376.972   8
   4  -7  15 6258.59 336.453   7
   4  -7  14 10555.3 492.867   8
   4  -7  14 9211.78 443.330   7
   4  -7  13 1571.59 201.528   8
  -4   7  13 1184.99 161.885  17
   4  -7  13 1438.59 185.484   7
  -4   7  12 1643.86 194.219  17
   4  -7  12 1593.98 203.969   8
  -4  -7 -11 2911.14 393.328  21
   4  -7  11 3420.94 289.343   8
  -4   7  11 3778.83 289.876  17
   4  -7  11 4175.32 465.120   1
  -4  -7 -10 10897.7 748.146  21
   4  -7  10 12229.8 569.013   8
  -4   7  10 11970.8 559.339  17
   4  -7  10 12099.4 777.324   1
   4  -7  10 12111.3 554.800   7
   4   7 -10 10195.1 717.973  23
  -4  -7  -9 39628.2 1560.13  21
   4  -7   9 35516.8 1536.01   1
  -4   7   9 39338.8 1276.53  17
   4  -7   9 38300.4 1239.37   7
   4   7  -9 36262.1 1542.36  23
  -4  -7  -8 34345.6 1436.65  21
   4   7  -8 33392.4 1466.04  23
   4  -7   8 36530.4 1483.51   1
  -4   7   8 35392.3 1201.05  17
   4  -7   8 35017.2 1160.16   7
  -4  -7  -7 20136.1 986.282  21
   4  -7   7 19371.6 1010.49  20
   4  -7   7 20717.7 1018.44   1
  -4   7   7 18947.5 781.856  17
   4  -7   7 19449.5 750.155   7
   4   7  -7 18574.3 1018.75  23
  -4  -7  -6 3602.94 386.682  21
   4  -7   6 3701.75 420.476  20
   4  -7   6 2917.56 372.321   1
  -4   7   6 3605.45 302.293  17
   4  -7   6 3943.46 282.736   7
   4   7  -6 3446.27 422.205  23
  -4   7   5 194.027 160.845  22
  -4  -7  -5 28.9531 108.200  21
   4  -7   5 189.154 138.607   1
   4  -7   5 180.020 153.829  20
   4  -7   5 213.948 117.333   7
  -4  -7  -5 72.6618 140.871   3
   4   7  -5 117.274 146.058  23
  -4   7   4 13778.1 835.139  22
  -4  -7  -4 11340.5 666.647  21
   4  -7   4 13305.1 793.553  20
   4  -7   4 10974.0 684.270   1
  -4   7   4 12153.7 586.109  17
   4  -7   4 12558.6 537.920   7
  -4  -7  -4 13437.0 808.460   3
   4   7  -4 12855.4 825.773  23
  -4   7   3 810.110 226.962  22
   4   7  -3 702.412 124.109   9
   4  -7   3 750.889 185.567   1
   4  -7   3 1255.03 258.152  20
  -4   7   3 871.930 176.030  17
   4  -7   3 766.201 138.986   7
   4   7  -3 867.442 249.277  23
  -4  -7  -3 1024.47 240.823   3
  -4   7   2 4977.36 501.550  22
   4   7  -2 4920.84 299.964   9
   4  -7   2 4252.27 453.666  20
   4  -7   2 4430.23 393.010   1
  -4  -7  -2 4363.81 408.166   2
  -4   7   2 5185.84 356.233  17
   4  -7   2 4742.60 293.324   7
  -4  -7  -2 4444.57 454.189   3
   4   7  -2 5306.82 515.729  23
   4   7  -1 4039.13 275.105   9
   4  -7   1 4022.68 434.244  20
  -4  -7  -1 4182.22 402.606   2
  -4   7   1 3946.99 312.529  17
  -4   7   1 4352.64 468.776  22
   4  -7   1 4100.23 264.606   7
  -4  -7  -1 3565.85 408.981   3
   4   7  -1 3630.46 442.434  23
   4   7   0 231.616 113.138   6
  -4   7   0 193.205 169.858  22
   4   7   0 95.9774 95.3136   9
   4  -7   0 109.562 131.085  20
  -4   7   0 118.892 116.741  17
   4  -7   0 67.6350 81.7780   7
  -4  -7   0 31.7948 118.786   2
   4   7   0 120.577 155.817  23
  -4  -7   0-34.0837 169.360   3
  -4   7  -1 5305.99 517.506  22
   4   7   1 4599.73 297.924   9
  -4  -7   1 3634.05 407.935   2
  -4   7  -1 4233.07 318.167  17
   4  -7  -1 4380.81 256.659   7
   4   7   1 4998.44 328.182   6
   4   7   1 4079.80 268.017  13
  -4  -7   1 3939.76 422.442   3
   4   7   1 4199.63 476.676  23
   4   7   2 5030.27 324.663   9
  -4  -7   2 4276.19 449.631   2
  -4   7  -2 4943.08 338.542  17
   4   7   2 5094.37 307.913  13
   4   7   2 5127.72 337.010   6
  -4  -7   2 4373.51 440.662   3
   4   7   2 4218.94 495.411  23
  -4  -7   3 711.241 208.326   3
   4   7   3 624.439 150.139   6
   4   7   3 856.255 157.388   9
   4  -7  -3 605.184 215.348  20
  -4   7  -3 593.897 144.075  17
   4   7   3 876.058 147.740  13
  -4  -7   3 794.123 221.936   2
   4   7   3 631.105 235.388  23
   4  -7  -4 13169.2 821.417  20
  -4  -7   4 12743.8 796.919   2
  -4   7  -4 11825.8 540.119  17
   4   7   4 12203.8 535.426  13
  -4  -7   4 10541.8 706.041   3
   4   7   4 12018.6 546.465   9
   4   7   4 12480.7 846.082  23
  -4  -7   5 34.3549 123.343   3
   4   7   5 203.722 115.994   9
   4  -7  -5 38.7242 144.691  20
   4   7   5 216.612 179.563  23
  -4   7  -5 171.532 107.867  17
   4   7   5 134.937 108.785  13
  -4  -7   5 308.388 178.636   2
   4   7   6 2630.01 429.407  23
  -4   7  -6 3263.17 431.634  22
   4   7   6 3497.61 286.201   9
   4  -7  -6 3634.04 428.992  20
  -4   7  -6 3443.90 260.118  17
   4   7   6 3887.67 291.826  13
  -4  -7   6 3803.36 421.540   3
  -4  -7   6 2771.04 389.469   2
   4   7   7 19880.1 756.097   9
   4  -7  -7 18235.0 1011.07  20
  -4  -7   7 16778.3 997.353   2
   4   7   7 19076.0 747.515  13
  -4  -7   7 17752.9 952.725   3
  -4   7  -7 17414.4 1037.17  22
   4  -7  -8 35286.8 1524.46  20
  -4  -7   8 36772.8 1572.29   2
   4   7   8 36524.5 1190.23  13
   4   7   8 34723.1 1187.36  12
  -4  -7   8 33094.8 1440.42   3
  -4   7  -8 35193.5 1568.54  22
   4  -7  -9 36768.5 1561.21  20
   4   7   9 40430.3 1207.66   8
  -4  -7   9 34507.7 1111.15  19
  -4  -7   9 38952.2 1216.62  18
  -4  -7   9 36482.7 1585.49   2
   4   7   9 39083.1 1243.02  13
   4   7   9 36600.3 1233.26  12
  -4   7  -9 32468.1 1380.98  23
   4   7  10 11571.3 547.587   9
   4  -7 -10 10715.1 757.270  20
   4   7  10 12542.0 541.384   8
  -4  -7  10 11773.3 481.905  19
  -4  -7  10 12036.7 529.927  18
  -4  -7  10 12314.0 831.841   2
   4   7  10 12122.2 567.642  13
   4   7  10 13230.1 569.503   6
   4   7  10 11653.6 567.380  12
  -4   7 -10 10929.9 694.631  23
   4   7  11 3981.14 294.824   9
   4  -7 -11 3827.63 438.342  20
   4   7  11 3767.19 277.551   8
  -4  -7  11 4053.99 270.240  18
   4   7  11 3728.45 298.818  13
   4   7  11 3503.23 293.823  12
   4   7  11 4204.98 294.090   6
   4   7  12 1015.11 165.601   6
   4   7  12 1677.19 197.360   9
  -4  -7  12 1284.61 152.514  18
   4   7  12 1307.27 176.912   8
   4   7  12 1513.52 207.442  13
   4   7  12 1190.66 195.574  12
   4   7  13 1485.04 188.500   8
   4   7  13 1233.93 185.429  13
   4   7  13 1514.32 182.561   6
   4   7  14 9790.66 452.840   8
   4   7  14 10672.3 469.257   6
   4   7  15 7208.75 360.280   8
   4   7  15 7074.89 356.137   6
   4   7  15 7318.63 378.771  12
   4   7  16 720.809 116.798   6
   4   7  16 911.798 136.529   8
   4   7  16 747.700 131.405  12
   4   7  17 4851.61 247.425  10
   4   7  17 4892.93 254.075   6
   4   7  17 5186.22 273.353  12
   4   7  18 1188.35 121.457  12
   4   7  19 12662.7 405.893  12
   4  -8  18 1063.34 104.959   8
   4  -8  17 1202.32 129.583   8
   4  -8  16 7677.72 348.455   8
   4  -8  15 112.261 88.6170   8
   4  -8  14 1180.77 161.450   8
   4  -8  13 3199.05 248.330   8
  -4   8  13 2821.46 216.684  17
   4  -8  12 1571.91 194.628   8
  -4   8  12 1597.71 182.188  17
  -4   8  11 1874.50 206.795  17
   4  -8  11 1426.76 190.741   8
   4  -8  11 1523.73 192.308   7
   4  -8  10 4008.73 297.145   8
  -4   8  10 4300.57 311.511  17
   4  -8  10 4274.90 300.118   7
  -4   8   9 3574.07 289.802  17
   4  -8   9 3065.82 256.863   7
  -4  -8  -8 3559.43 250.788  18
  -4   8   8 3481.75 297.407  17
   4  -8   8 3980.60 293.721   7
  -4  -8  -8 3298.06 397.244   3
   4  -8   8 3128.68 378.430   1
   4   8  -8 3422.36 423.711  23
  -4  -8  -7 715.678 133.526  18
  -4   8   7 645.341 166.757  17
   4  -8   7 435.410 163.414   1
   4  -8   7 675.708 153.915   7
  -4  -8  -7 505.731 183.928   3
   4   8  -7 520.105 203.587  23
   4  -8   6 9489.04 683.671  20
   4  -8   6 9086.68 446.715   7
  -4  -8  -6 6812.03 582.729   3
   4  -8   6 7404.66 577.437   1
   4   8  -6 7364.19 634.284  23
  -4   8   5 1645.12 326.763  22
   4  -8   5 2162.32 343.937  20
   4  -8   5 1295.95 244.379   1
   4  -8   5 1465.64 183.830   7
  -4  -8  -5 1588.50 284.979   3
   4   8  -5 1784.99 324.110  23
  -4   8   4 21384.4 1124.87  22
   4  -8   4 21217.7 1101.66  20
  -4   8   4 20530.4 848.915  17
   4  -8   4 21885.8 786.018   7
  -4  -8  -4 20635.8 1058.70   3
   4   8  -4 21852.2 1144.68  23
  -4   8   3 207.860 172.282  22
   4  -8   3 117.255 166.960  20
  -4   8   3 18.5043 121.253  17
   4  -8   3-13.6123 94.6119   7
   4   8  -3 42.3831 152.112  23
  -4  -8  -3 105.949 126.751   3
  -4   8   2 1666.74 333.779  22
   4  -8   2 1326.42 291.153  20
  -4   8   2 1487.03 218.544  17
   4  -8   2 1901.81 192.280   7
  -4  -8  -2 1121.27 249.154   3
   4   8  -2 1710.55 324.790  23
  -4   8   1 13283.6 866.853  22
   4  -8   1 14066.5 869.694  20
  -4  -8  -1 12936.9 770.423   2
  -4   8   1 13929.2 642.773  17
   4  -8   1 14612.1 568.812   7
   4   8  -1 14653.4 633.698   6
  -4  -8  -1 14288.0 835.602   3
   4   8  -1 13728.4 891.224  23
  -4  -8   0 137.980 151.683   3
  -4   8   0 125.451 150.139  22
   4   8   0 43.4197 155.888  23
   4   8   0 241.081 107.048   9
  -4   8   0 337.655 142.680  17
  -4  -8   0 134.934 115.993   2
   4   8   1 14088.3 595.852   9
  -4  -8   1 12868.9 805.728   2
  -4   8  -1 14552.2 640.480  17
  -4  -8   1 15177.2 842.655   3
   4   8   1 14288.9 567.177  12
   4   8   1 14236.7 919.568  23
  -4  -8   2 1560.23 270.779   3
   4  -8  -2 2227.95 349.749  20
  -4   8  -2 1693.90 208.244  17
   4   8   2 1857.16 345.289  23
   4   8   2 1677.20 194.861   9
   4   8   2 1641.50 185.648  12
  -4  -8   2 1507.33 285.469   2
  -4  -8   3 135.052 148.409   3
   4   8   3 46.3436 103.729   9
   4  -8  -3-39.9051 149.068  20
  -4   8  -3 128.990 110.814  17
   4   8   3-44.5991 160.066  23
   4   8   3 83.2678 101.676  12
  -4  -8   3 114.047 142.010   2
   4   8   4 20715.8 784.110   9
  -4   8  -4 21281.1 1130.40  22
   4  -8  -4 22242.0 1125.89  20
  -4  -8   4 19520.9 1058.04   2
  -4   8  -4 20142.1 772.292  17
  -4  -8   4 19431.6 993.340   3
   4   8   4 19640.4 751.346  12
   4   8   4 19954.0 1131.24  23
   4   8   5 1924.67 355.350  23
  -4   8  -5 1569.88 322.433  22
  -4  -8   5 1539.87 273.722   3
   4   8   5 1730.63 211.769   9
   4  -8  -5 1791.54 319.258  20
  -4  -8   5 1535.68 159.125  19
  -4   8  -5 1901.02 201.461  17
   4   8   5 1542.54 190.946  13
   4   8   5 1452.32 189.000  12
  -4  -8   5 1396.23 289.037   2
  -4   8  -6 7682.29 659.479  22
   4   8   6 9378.04 470.354   9
   4  -8  -6 8215.01 657.649  20
  -4  -8   6 8590.25 389.866  19
  -4   8  -6 8400.53 411.054  17
  -4  -8   6 8907.36 696.986   2
   4   8   6 8352.22 438.728  13
   4   8   6 7797.17 440.457   6
   4   8   6 8981.22 455.695  12
  -4  -8   6 7364.03 578.252   3
  -4   8  -7 465.519 210.777  22
  -4  -8   7 726.385 199.993   3
   4   8   7 568.864 145.322   6
   4   8   7 556.512 144.352   9
   4  -8  -7 506.345 217.796  20
  -4  -8   7 563.820 106.150  19
  -4  -8   7 690.788 151.200  18
   4   8   7 610.522 157.086  13
   4   8   7 691.612 154.324  12
  -4  -8   7 611.607 219.984   2
  -4   8  -8 3316.25 438.207  22
   4  -8  -8 3276.02 408.773  20
  -4  -8   8 3433.66 277.707  18
   4   8   8 3329.18 277.876  13
   4   8   8 3656.85 280.140   6
   4   8   8 3137.61 276.063  12
  -4  -8   8 3059.13 411.303   2
  -4  -8   9 3600.61 272.579  18
   4   8   9 3523.71 284.972  13
   4   8   9 3474.03 268.735   6
   4   8   9 3136.91 271.389  12
  -4  -8   9 2984.74 402.799   2
  -4  -8  10 4432.86 289.092  18
   4   8  10 4150.34 304.846  13
   4   8  10 4046.56 307.245  12
   4   8  10 4169.50 287.611   6
  -4  -8  11 1666.66 174.649  18
   4   8  11 2002.60 218.653  12
   4   8  11 1713.42 184.118   6
   4   8  12 1345.75 182.488  12
   4   8  12 1439.77 169.994   6
   4   8  13 3264.20 254.288  12
   4   8  13 2909.76 224.936   6
   4   8  14 1085.17 130.314   6
   4   8  15 107.267 71.1818   6
   4   8  16 7000.53 306.513   6
   4   8  16 7767.10 324.473  10
   4   8  16 7491.01 335.897  12
   4   8  17 1248.19 110.285  10
   4   8  17 1367.72 127.174  12
   4   8  18 1025.72 91.3213  12
   4  -9  17 4290.12 184.668   8
   4  -9  16 602.788 87.8638   8
   4  -9  15 6597.22 296.889   8
   4  -9  14 1861.03 166.751   8
   4  -9  13 431.167 109.923   8
  -4   9  12 1405.77 154.205  17
   4  -9  12 1175.32 155.863   8
   4  -9  11 5318.37 314.560   8
  -4   9  11 5310.44 307.789  17
   4  -9  10 1887.35 199.959   8
  -4   9  10 2449.24 221.493  17
  -4   9   9 1359.65 183.324  17
   4  -9   9 1261.38 175.351   8
  -4   9   8 1510.03 203.702  17
  -4  -9  -7 1284.72 158.085  18
  -4   9   7 1563.97 205.300  17
  -4  -9  -6 1700.05 187.714  18
  -4  -9  -5 2690.96 227.969  18
  -4   9   5 1831.09 230.898  17
   4  -9   4 7446.66 626.000  20
  -4  -9  -4 6311.06 379.430  18
  -4   9   4 7241.31 423.136  17
   4   9  -4 5762.77 567.581  23
  -4  -9  -3 1917.02 296.572   3
  -4   9   3 2668.46 387.785  22
   4  -9   3 2028.23 346.555  20
  -4  -9  -3 2381.75 237.012  18
  -4   9   3 2114.42 240.345  17
   4   9  -3 2504.39 387.227  23
  -4  -9  -2 2394.73 325.999   3
  -4   9   2 2348.22 369.946  22
   4  -9   2 2246.51 361.504  20
  -4  -9  -2 2414.12 241.510  18
  -4   9   2 2035.36 234.971  17
   4   9  -2 1721.23 322.834  23
  -4  -9  -1 1154.69 230.170   3
   4   9  -1 1347.99 303.983  23
  -4  -9  -1 1407.62 196.829  18
  -4   9   1 1429.18 198.762  17
  -4  -9   0 22672.2 872.283  18
  -4   9   0 23264.3 881.964  17
  -4  -9   0 22759.9 1069.49   3
   4   9   0 22887.0 1210.91  23
  -4  -9   1 847.442 217.345   3
   4  -9  -1 1118.15 266.257  20
  -4  -9   1 1341.53 202.767  18
  -4   9  -1 1377.86 197.996  17
  -4  -9   1 799.296 223.546   2
   4   9   1 968.931 263.476  23
  -4  -9   2 1432.01 261.840   3
  -4   9  -2 2803.66 405.786  22
   4  -9  -2 2231.53 359.376  20
  -4  -9   2 2184.14 238.953  18
  -4   9  -2 2279.07 237.294  17
   4   9   2 2839.06 249.860   6
   4   9   2 2243.70 200.063  12
  -4  -9   2 2457.54 349.556   2
   4   9   2 2165.47 373.209  23
  -4   9  -3 2325.73 371.846  22
   4  -9  -3 1899.27 327.586  20
  -4   9  -3 2500.95 234.361  17
   4   9   3 2324.03 227.066   6
   4   9   3 2635.41 219.512  12
  -4  -9   3 1525.17 291.230   2
   4   9   3 2377.08 374.694  23
   4   9   4 6155.73 606.446  23
  -4   9  -4 7070.29 620.673  22
   4  -9  -4 5625.08 545.906  20
  -4   9  -4 6513.76 366.858  17
   4   9   4 6902.36 391.648   6
   4   9   4 6904.36 367.762  12
  -4  -9   5 2742.93 257.332  18
  -4   9  -5 2241.16 211.312  17
   4   9   5 2643.75 238.726   6
   4   9   5 2175.93 218.272  12
  -4  -9   6 1065.06 182.427  18
   4   9   6 1375.73 171.103   6
   4   9   6 1138.05 171.021  12
   4   9   7 1385.53 176.440   6
  -4  -9   7 1474.58 189.939  18
   4   9   7 1288.20 171.818  12
  -4  -9   8 1723.21 204.754  18
   4   9   8 1615.08 183.496   6
   4   9   8 1651.17 196.529  12
   4   9   9 1188.76 158.369   6
  -4  -9   9 1204.86 163.817  18
   4   9   9 1259.80 179.870  12
  -4  -9  10 1934.57 181.540  18
   4   9  10 2009.36 205.177  12
   4   9  10 2109.30 191.220   6
  -4  -9  11 4741.97 261.638  18
   4   9  11 4697.69 295.726  12
   4   9  11 4653.70 271.638   6
   4   9  12 1186.42 164.926  12
   4   9  12 1272.18 140.736   6
   4   9  13 714.091 103.323   6
   4   9  13 387.574 109.007  12
   4   9  14 2117.68 169.813  10
   4   9  14 2083.60 175.894  12
   4   9  15 6555.16 287.567  10
   4   9  16 662.655 78.6017  10
   4   9  16 675.043 90.0411  12
   4 -10  14 366.635 71.2880   8
   4 -10  13 6511.03 282.970   8
   4 -10  12 3371.78 209.123   8
  -4  10  12 3910.04 205.508  17
   4 -10  11 5297.10 276.591   8
  -4  10  11 4989.92 267.009  17
   4 -10  10 2667.30 203.416   8
  -4  10  10 2718.39 207.187  17
   4 -10   9 1690.93 170.408   8
  -4  10   9 1489.51 169.604  17
   4 -10   8 3848.08 254.899   8
  -4  10   8 3647.93 263.413  17
  -4 -10  -7 1057.92 126.887  18
  -4 -10  -6 580.128 112.868  18
  -4 -10  -5 4038.42 264.614  18
  -4  10   5 4552.76 308.429  17
  -4 -10  -4 832.918 146.050  18
  -4  10   4 857.042 162.747  17
   4  10  -3 721.407 138.593   6
  -4 -10  -3 680.859 142.139  18
  -4  10   3 772.184 165.018  17
  -4 -10  -2 2373.23 220.054  18
  -4  10   2 2316.15 227.832  17
   4  10  -2 2207.03 214.004   6
   4  10  -1 300.037 117.651   6
  -4 -10  -1 225.998 123.063  18
  -4  10   1 233.594 116.507  17
   4  10   0 142.314 101.104   6
  -4 -10   0 61.6192 113.997  18
  -4  10   0 76.1735 114.927  17
   4  10   1 282.281 108.640   6
  -4 -10   1 218.084 125.180  18
  -4  10  -1 294.115 113.178  17
  -4 -10   2 2508.75 249.068  18
  -4  10  -2 2624.06 228.865  17
   4  10   2 2322.04 215.899   6
   4  10   3 667.934 137.801   6
  -4 -10   3 801.537 160.449  18
  -4  10  -3 674.592 131.919  17
   4  10   3 530.740 104.506  12
   4  10   4 768.828 136.874   6
  -4  10  -4 962.686 140.258  17
   4  10   4 852.050 129.732  12
  -4 -10   5 4449.84 304.695  18
  -4  10  -5 4153.98 251.327  17
   4  10   5 4599.87 283.453   6
   4  10   5 4184.67 260.388  12
   4  10   6 376.596 107.569   6
  -4 -10   6 593.578 134.776  18
   4  10   6 670.336 122.078  12
   4  10   7 945.942 136.188   6
  -4 -10   7 1158.10 161.605  18
   4  10   7 1196.63 152.054  12
  -4 -10   8 3807.28 251.056  18
   4  10   8 3310.10 231.507  12
   4  10   8 3663.67 234.758   6
  -4 -10   9 1714.34 162.803  18
   4  10   9 1412.87 156.359  12
   4  10   9 1539.45 149.999   6
  -4 -10  10 2353.00 174.503  18
   4  10  10 2644.34 193.425  12
   4  10  10 2477.30 176.798   6
   4  10  11 5965.86 295.546  10
   4  10  11 5117.57 275.777  12
   4  10  12 3428.96 212.434  10
   4  10  12 3742.34 217.483  12
   4  10  13 5844.58 266.143  12
   4  10  14 494.220 77.3200  10
   4  10  14 461.887 77.9938  12
   4 -11  11 2313.65 134.542   8
  -4  11  11 1955.48 125.224  17
  -4  11  10 663.383 92.5706  17
   4 -11  10 650.825 92.1740   8
   4 -11   9 1768.10 140.528   8
  -4  11   9 1538.02 143.224  17
   4 -11   8 5947.53 279.303   8
  -4  11   8 6398.69 306.040  17
   4  11  -8 5991.88 288.717   6
   4 -11   7 7793.82 334.959   8
   4  11  -7 7576.98 342.465   6
   4 -11   6 2022.45 164.858   8
  -4  11   6 1729.58 173.269  17
   4  11  -6 1641.77 156.431   6
   4  11  -5 725.070 117.814   6
  -4 -11  -5 797.635 108.775  18
  -4  11   5 710.923 131.328  17
  -4 -11  -4 1215.68 140.062  18
  -4  11   4 1325.44 163.541  17
   4  11  -4 1425.45 151.432   6
  -4 -11  -3 5764.07 301.777  18
  -4  11   3 5858.08 327.027  17
   4  11  -3 6272.58 317.609   6
  -4 -11  -2 7057.42 350.644  18
  -4  11   2 7152.17 365.960  17
   4  11  -2 7256.24 351.604   6
   4  11  -1 637.131 118.071   6
  -4 -11  -1 560.308 114.377  18
  -4  11   1 591.945 122.852  17
   4  11   0 153.030 84.8468   6
  -4 -11   0 240.798 102.944  18
  -4  11   0 140.391 88.3381  17
   4  11   1 571.315 115.130   6
  -4 -11   1 488.808 119.433  18
  -4  11  -1 488.315 114.520  17
   4  11   2 6838.11 298.663  10
  -4 -11   2 7182.45 362.849  18
  -4  11  -2 6728.97 330.557  17
   4  11   2 6836.39 336.296   6
   4  11   3 5438.61 270.282  10
  -4 -11   3 5662.86 316.749  18
  -4  11  -3 5396.49 277.222  17
   4  11   3 6028.13 303.328   6
   4  11   4 1383.96 140.279  10
  -4  11  -4 1204.45 124.385  17
   4  11   4 1458.33 148.595   6
   4  11   5 720.303 109.417   6
   4  11   5 727.134 110.128  10
  -4 -11   6 1697.70 163.799  18
   4  11   6 1889.24 158.917  10
   4  11   6 1784.37 135.767  12
   4  11   6 1646.33 145.438   6
   4  11   7 7665.55 331.562  10
  -4 -11   7 7792.52 344.606  18
   4  11   7 7133.49 300.363  12
   4  11   8 6752.99 296.336  10
  -4 -11   8 6151.61 279.150  14
   4  11   8 5852.66 263.256  12
   4  11   9 1568.14 134.980  10
   4  11   9 1173.65 111.032  12
   4  11  10 691.438 92.1117  10
   4  11  11 2420.51 147.811  10
   4  11  12 2344.30 131.685  10
  -4  12   8 2197.53 127.904  17
  -4  12   6 1673.30 129.303  17
  -4  12   5 2472.59 162.734  17
  -4 -12  -5 2108.81 125.038  14
  -4  12   4 1614.52 140.031  17
  -4 -12  -4 1336.35 114.602  14
  -4  12   3 567.912 92.2349  17
  -4  12   2 5000.10 247.338  17
  -4  12   1 1591.56 136.050  17
  -4  12   0 525.387 86.5207  17
  -4  12  -1 1524.50 121.076  17
  -4  12  -2 4224.30 190.376  17
  -4 -12   4 1800.09 141.265  14
  -4 -12   5 2540.04 159.353  14
  -4 -12   6 1416.71 112.937  14
  -5   0   0-82.2703 112.756   3
   5   0   0-36.4263 73.0846  20
  -5   0   0 63.0754 87.6763  16
  -5   0   1 1432.76 209.956   3
  -5   0  -1 1382.46 247.798  21
   5   0  -1 1477.58 203.711  20
   5   0   1 1310.14 178.450  20
  -5   0  -1 1374.41 162.827  16
  -5   0   1 1186.04 157.984  16
  -5   0  -1 1208.24 188.951   3
  -5   0  -2 29.7581 130.802  21
   5   0  -2 66.7830 103.142  20
   5   0   2 14.3674 75.9020  20
  -5   0  -2 12.3996 73.7995  16
  -5   0   2-12.9204 86.7529  16
  -5   0   2 126.688 95.3544   3
  -5   0  -2 62.0347 82.9742   3
  -5   0   3 239.182 114.910   3
  -5   0  -3 90.8840 117.478  21
   5   0  -3 96.9722 109.526  20
  -5   0   3 88.1801 121.850  21
  -5   0  -3 98.4551 87.4694  16
  -5   0  -3 189.111 106.694   3
  -5   0   4 1399.80 211.415   3
  -5   0   4 1360.75 154.957   5
  -5   0  -4 1548.72 275.862  21
  -5   0   4 1101.98 238.957  21
   5   0  -4 1205.25 217.596  20
  -5   0  -4 1084.83 149.852  16
  -5   0   4 1185.38 161.431  16
   5   0   4 1264.69 122.440   6
   5   0   5 4422.54 423.851   1
  -5   0  -5 4388.19 423.509  21
  -5   0   5 4369.57 272.877   5
  -5   0   5 5009.29 438.490  21
   5   0  -5 4488.50 405.557  20
  -5   0  -5 4775.30 286.545  16
  -5   0   5 4607.84 296.769  16
  -5   0   5 4487.09 368.973   3
   5   0   5 4405.24 236.701   6
  -5   0  -6 6676.56 542.345  21
  -5   0  -6 7570.52 353.309   5
  -5   0   6 7319.48 365.057   5
   5   0  -6 7398.02 538.088  20
  -5   0  -6 6958.25 361.052  16
  -5   0   6 7527.65 391.729  16
   5   0   6 7266.37 329.215   6
  -5   0   6 7889.57 503.981   3
  -5   0  -7 11549.9 730.953  21
  -5   0  -7 11895.9 475.176   5
  -5   0   7 12082.2 510.188   5
   5   0  -7 11252.1 716.997  20
  -5   0   7 12769.5 538.498  16
   5   0   7 12801.4 481.018   6
  -5   0   7 11067.6 642.066   3
  -5   0  -8 4508.93 448.769  21
  -5   0  -8 3844.20 233.326   5
   5   0  -8 3554.03 405.633  20
  -5   0   8 4117.74 262.096   5
   5   0   8 3342.29 383.311   1
   5   0   8 3763.65 250.607   8
  -5   0   8 3762.30 273.419  16
   5   0   8 3501.28 233.908   6
  -5   0   8 4045.92 287.913  11
  -5   0  -9 6181.95 539.115  21
   5   0  -9 7518.16 603.583  20
  -5   0   9 6741.17 347.255   5
   5   0   9 6472.85 534.985   1
   5   0   9 6441.43 350.397   8
  -5   0   9 6736.42 371.541  16
   5   0   9 6752.79 339.085   6
  -5   0   9 7071.01 393.995  11
  -5   0 -10 784.425 222.738  21
  -5   0  10 526.149 134.688  11
   5   0  10 546.193 114.256   6
   5   0 -10 536.539 206.774  20
  -5   0  10 512.227 108.760   5
   5   0  10 559.451 133.087   8
  -5   0  10 563.477 128.140  16
   5   0  10 846.269 222.233   1
  -5   0  11 316.446 108.318  11
   5   0  11 261.412 100.895   6
  -5   0 -11 153.415 154.004  21
  -5   0  11 223.247 84.3937   5
   5   0  11 184.260 106.052   8
   5   0  11 308.038 166.421   1
   5   0  12 7278.10 378.099   6
  -5   0 -12 7733.50 620.928  21
  -5   0  12 7473.94 351.852   5
   5   0  12 7246.28 398.378   8
   5   0  12 7200.21 582.119   1
  -5   0  12 8129.76 417.594  11
  -5   0  13 86.5630 94.5716  11
   5   0  13 133.188 94.6374   6
  -5   0 -13 157.244 146.868  21
   5   0  13 67.8948 131.623   1
   5   0 -13 125.297 156.036  20
   5   0  13 137.897 114.500   8
   5   0  13 99.2749 109.000   7
  -5   0 -14 2765.28 379.251  21
   5   0 -14 2591.74 385.005  20
   5   0  14 2377.92 228.678   8
   5   0  14 2812.44 229.564   7
   5   0  14 2739.42 349.144   1
  -5   0  14 2249.69 212.870  11
  -5   0  15 484.707 116.720  11
  -5   0 -15 642.360 203.890  21
   5   0 -15 452.056 213.336  20
   5   0  15 595.968 187.198   1
   5   0  15 648.673 142.901   8
   5   0  15 619.917 131.837   7
  -5   0  16-53.6694 72.9257  11
   5   0  16-44.8022 112.640   8
   5   0  16-46.6554 83.7233   7
   5   0  16 74.1954 114.015  13
   5   0  17 4150.51 287.724   8
   5   0  17 3718.96 237.057   7
   5   0  17 3725.31 267.031  13
   5   0  18 2949.74 234.729   8
   5   0  18 2517.68 203.564  13
   5   0  19 136.174 85.6531   8
   5   0  20 5600.97 286.696   8
   5   0  21 8635.31 345.597   8
   5   0  21 8572.45 355.642  15
   5   0  22 109.919 55.8751   8
   5   0  22 147.256 58.6148  15
   5  -1  22 316.369 66.1774   8
   5  -1  22 312.074 64.0635  15
   5  -1  21 4115.28 217.541   8
   5  -1  21 4070.39 218.519  15
   5  -1  20 2416.94 185.627   8
   5  -1  20 2222.42 185.703  15
   5  -1  19 5719.14 309.919   8
   5  -1  19 5710.36 317.836  15
   5  -1  18 981.386 154.838   8
   5  -1  18 1058.75 160.756  15
   5  -1  18 851.347 124.050  13
   5  -1  17 8285.21 418.836   8
   5  -1  17 7723.36 366.228   7
   5  -1  17 8303.75 441.757  15
   5  -1  17 7906.73 392.219  13
  -5   1  16 472.208 100.225  11
   5  -1  16 332.690 128.696   8
   5  -1  16 505.687 151.545  15
   5  -1  16 457.651 116.215   7
  -5  -1 -15 6856.86 615.544  21
   5   1 -15 6014.60 587.553  20
  -5   1  15 7015.74 368.489  11
   5  -1  15 7656.58 419.568   8
   5  -1  15 8084.63 399.179   7
   5  -1  15 8590.04 464.438  15
   5  -1  15 7713.69 585.765   1
  -5  -1 -14 9474.99 716.895  21
   5   1 -14 7800.30 667.681  20
   5  -1  14 9063.60 467.475   8
   5  -1  14 10079.2 465.217   7
   5  -1  14 8489.08 645.619   1
  -5   1  14 9549.19 448.219  11
  -5   1  13 14.3889 100.006  11
   5  -1  13 35.2477 126.504   1
   5  -1  13 124.592 108.241   8
   5  -1  13 28.9432 108.120   7
  -5  -1 -13 41.4262 142.348  21
  -5  -1 -12 6563.30 599.369  21
  -5   1  12 6687.91 334.104   5
   5  -1  12 6581.63 383.108   8
  -5   1  12 6207.56 345.321  16
   5  -1  12 7311.57 394.278   7
   5  -1  12 7223.02 586.926   1
  -5   1  12 6900.45 383.827  11
  -5  -1 -11 6423.28 579.036  21
   5   1 -11 6029.41 554.967  20
  -5   1  11 6279.45 329.330   5
   5  -1  11 6383.95 365.788   8
  -5   1  11 6249.90 349.707  16
   5  -1  11 5760.78 526.180   1
   5  -1  11 6630.32 376.795   7
  -5   1  11 6506.35 374.689  11
   5  -1  10 1001.20 241.271   1
   5  -1  10 975.856 135.358   6
  -5  -1 -10 1402.64 277.892  21
  -5   1  10 1165.01 148.356   5
   5  -1  10 1168.72 163.128   8
  -5   1  10 798.423 147.636  16
   5  -1   9 1996.72 174.044   6
  -5  -1  -9 2281.13 178.229   5
  -5  -1  -9 1880.79 313.505  21
  -5   1   9 2262.89 195.595   5
   5  -1   9 2075.31 199.328   8
  -5   1   9 1883.75 201.960  16
  -5  -1  -8 4229.22 441.356  21
  -5   1   8 3838.90 256.506   5
   5  -1   8 3484.05 248.642   8
  -5   1   8 3681.42 271.853  16
   5  -1   8 3749.14 224.138   6
  -5  -1  -7 12494.7 762.693  21
  -5   1   7 12784.4 515.717   5
   5  -1   7 12871.6 745.866   1
  -5   1   7 11197.7 519.080  16
   5  -1   7 11568.7 445.936   6
  -5  -1  -6 768.912 208.986  21
   5   1  -6 720.209 205.066  20
  -5   1   6 1082.78 146.495   5
  -5   1   6 921.030 153.921  16
   5  -1   6 842.412 217.964   1
  -5  -1  -5 20367.1 1014.71  21
   5   1  -5 22619.5 975.004  20
   5  -1   5 19548.2 968.653   1
  -5   1   5 20154.9 726.741   5
  -5   1   5 21328.9 767.138  16
  -5   1   5 19367.1 841.312   3
   5  -1   4 13070.9 723.864   1
   5   1  -4 13157.7 683.152  20
  -5   1   4 11667.3 495.879   5
  -5   1   4 11430.4 515.029  16
  -5   1   4 12342.2 600.841   3
   5   1  -3 6181.37 438.419  20
   5  -1   3 6418.05 370.691  20
   5  -1   3 6336.44 486.325   1
  -5  -1  -3 6065.57 342.034  16
  -5  -1  -3 6414.39 453.273   3
  -5   1   3 6220.97 400.162   3
  -5   1   2 1555.70 172.645  22
  -5   1   2 2167.10 186.014   5
  -5   1   2 1493.41 261.987  21
   5   1  -2 2487.69 264.605  20
   5  -1   2 2397.52 237.477  20
  -5  -1  -2 2468.10 207.719  16
  -5   1   2 2055.06 196.969  16
   5  -1   2 2038.51 285.614   1
  -5  -1  -2 2355.58 273.641   3
  -5   1   2 2198.26 229.671   3
  -5  -1  -2 2023.97 176.434  11
  -5   1   1 5003.65 326.964  22
  -5  -1  -1 5086.03 444.961  21
  -5   1   1 5382.46 458.800  21
  -5   1   1 4833.26 286.960   5
   5   1  -1 5154.89 362.648  20
   5  -1   1 5112.41 360.323  20
  -5  -1  -1 5499.73 315.607  16
  -5   1   1 5118.67 308.214  16
  -5  -1  -1 5693.47 412.670   3
  -5   1   1 4885.56 338.492   3
  -5  -1  -1 4590.81 274.443  11
  -5   1   0 2126.59 185.966   5
  -5  -1   0 2033.34 287.310  21
  -5   1   0 1976.19 294.770  21
   5   1   0 2017.27 222.625  20
   5  -1   0 2459.10 260.803  20
  -5  -1   0 2462.96 211.448  16
  -5   1   0 2176.15 205.693  16
  -5  -1   0 2773.93 285.900   3
  -5   1   0 2626.02 242.520   3
  -5  -1   0 1896.93 183.998  11
  -5   1   0 1914.77 212.302  22
  -5   1  -1 5448.57 455.399  21
  -5  -1   1 4746.41 426.983  21
  -5   1  -1 4842.12 281.109   5
   5   1   1 4148.20 296.684  20
   5  -1  -1 5387.86 392.267  20
  -5  -1   1 4931.00 305.576  16
  -5   1  -1 4892.01 299.983  16
  -5  -1   1 5366.61 405.643   3
  -5   1  -1 5219.01 345.115   3
   5   1   1 4871.19 246.671   6
  -5  -1   1 5104.44 293.545  11
  -5  -1   2 2488.91 312.372  21
  -5   1  -2 1855.42 176.174   5
  -5   1  -2 2000.45 286.570  21
   5  -1  -2 2329.78 273.183  20
  -5   1  -2 2178.56 196.132  16
  -5   1  -2 1993.12 218.404   3
  -5  -1   2 2336.54 278.277   3
   5   1   2 2366.43 166.483   6
  -5  -1   2 1937.20 186.499  11
  -5   1  -3 6435.40 502.416  21
  -5  -1   3 6365.97 487.466  21
  -5   1  -3 6439.65 324.542   5
   5  -1  -3 5587.00 438.244  20
  -5   1  -3 6107.63 338.621  16
  -5   1  -3 6313.25 388.818   3
  -5  -1   3 6533.83 479.942   2
  -5  -1   3 7194.51 473.043   3
   5   1   3 5883.82 289.991   6
  -5  -1   3 6233.22 339.791  11
  -5   1  -4 12158.4 715.449  21
  -5  -1   4 12321.9 704.595  21
  -5   1  -4 12070.4 479.116   5
   5  -1  -4 11710.9 668.702  20
  -5  -1   4 10534.0 495.105  16
  -5   1  -4 12202.5 504.734  16
  -5   1  -4 11735.2 563.308   3
  -5  -1   4 11374.2 678.424   2
  -5  -1   4 11637.5 643.979   3
   5   1   4 11581.3 448.628   6
  -5  -1   4 11379.2 501.162  11
  -5  -1   5 21589.9 984.758  21
  -5   1  -5 20764.8 990.299  21
  -5   1  -5 19862.7 698.207   5
   5  -1  -5 21556.8 981.048  20
  -5  -1   5 19267.7 742.952  16
  -5   1  -5 20191.2 726.117  16
  -5   1  -5 20155.1 815.506   3
  -5  -1   5 20817.0 981.784   2
   5   1   5 21536.8 693.892   6
  -5  -1   5 20831.3 929.617   3
  -5  -1   5 19818.0 742.484  11
  -5  -1   6 924.199 232.020   2
  -5  -1   6 1012.53 199.510   3
   5   1   6 665.224 109.533   6
  -5   1  -6 933.707 219.686  21
   5  -1  -6 938.609 206.020  20
  -5   1  -6 825.450 118.864   5
  -5  -1   6 878.246 142.218  16
  -5   1  -6 892.397 130.923  16
  -5   1  -7 12745.2 753.940  21
  -5  -1   7 11575.8 492.675   5
   5  -1  -7 12574.7 745.223  20
  -5   1  -7 12094.9 472.141   5
  -5  -1   7 11279.9 515.252  16
   5   1   7 12547.6 738.911   1
  -5  -1   7 11995.1 753.179   2
   5   1   7 11689.1 479.148   6
  -5  -1   7 11534.5 678.976   3
  -5   1  -8 2892.66 361.074  21
  -5  -1   8 3456.54 244.273   5
   5  -1  -8 4083.77 436.908  20
   5   1   8 3775.10 405.725   1
  -5   1  -8 3607.82 223.520   5
   5   1   8 3177.01 235.520   8
  -5  -1   8 3504.12 261.518  16
  -5  -1   8 3332.53 271.681  11
  -5  -1   8 3510.90 373.793   3
   5   1   8 3927.71 250.125   6
  -5   1  -9 2203.25 332.188  21
  -5  -1   9 2224.36 187.908   5
   5  -1  -9 2335.15 343.110  20
   5   1   9 1727.00 185.973   8
   5   1   9 2064.60 320.438   1
   5   1   9 2436.37 202.315   6
  -5  -1   9 2135.86 222.790  11
  -5  -1  10 817.648 159.289  11
   5   1  10 974.111 143.597   6
  -5   1 -10 1110.83 244.500  21
  -5  -1  10 988.791 136.156   5
   5   1  10 827.645 141.966   8
   5   1  10 1036.68 238.608   1
  -5   1 -11 6574.43 558.654  21
  -5  -1  11 6235.00 319.479   5
   5   1  11 6455.25 363.821   8
   5   1  11 6483.86 540.048   1
   5   1  11 6679.57 360.803   6
  -5  -1  11 6084.73 369.442  11
  -5   1 -12 6457.86 557.688  21
   5  -1 -12 7458.64 624.629  20
  -5  -1  12 6457.28 319.956   5
   5   1  12 7003.90 386.283   8
   5   1  12 6322.94 530.598   1
  -5  -1  12 7186.01 394.938  11
   5   1  12 6865.66 370.109   6
  -5  -1  13-14.5461 104.427  11
   5   1  13 196.069 100.544   6
   5   1  13 161.866 134.171   1
  -5   1 -13 147.261 132.140  21
   5  -1 -13 125.180 172.929  20
   5   1  13 15.0511 119.791   8
   5   1  14 9495.74 454.073   6
  -5   1 -14 8958.32 655.726  21
   5  -1 -14 9644.39 729.240  20
   5   1  14 10147.6 480.788   8
   5   1  14 9157.71 440.730   7
   5   1  14 9273.01 626.973   1
   5   1  14 9791.99 516.914  15
  -5  -1  14 9114.56 444.800  11
   5   1  15 7723.08 395.904   6
  -5   1 -15 6274.75 543.910  21
   5  -1 -15 7261.95 614.144  20
   5   1  15 7750.22 413.647   8
   5   1  15 7930.44 384.248   7
   5   1  15 7255.85 433.790  15
   5   1  15 6428.14 515.815   1
   5   1  15 7330.50 418.675  13
  -5  -1  15 7521.85 378.574  11
  -5  -1  16 400.562 98.2312  11
   5   1  16 380.444 124.443   8
   5   1  16 411.592 146.036  15
   5   1  16 390.162 105.004   7
   5   1  16 347.019 119.416  13
   5   1  17 8045.56 411.897   8
   5   1  17 8563.45 447.932  15
   5   1  17 8139.02 410.781  13
   5   1  18 841.455 137.141   8
   5   1  18 638.796 152.062  15
   5   1  18 804.543 132.827  13
   5   1  19 5619.53 301.093   8
   5   1  19 5807.38 326.454  15
   5   1  19 4892.69 259.746  13
   5   1  20 2316.58 175.287   8
   5   1  20 1973.27 181.434  15
   5   1  21 4015.94 210.831   8
   5   1  21 3828.76 220.877  15
   5   1  22 345.789 65.9040   8
   5  -2  22 1450.49 106.025   8
   5  -2  21 13307.0 458.665   8
   5  -2  21 13071.6 441.696  15
   5  -2  20 2572.59 184.711   8
   5  -2  20 2733.50 188.162  15
   5  -2  19 372.452 105.821   8
   5  -2  19 539.919 112.393  15
   5  -2  18 3044.64 238.064   8
   5  -2  18 2818.28 230.613  15
   5  -2  17 1512.04 188.749   8
   5  -2  17 1405.68 154.941   7
   5  -2  17 1326.45 185.070  15
   5  -2  17 1281.88 153.296  13
   5  -2  16 2565.96 238.665   8
   5  -2  16 2960.80 228.736   7
   5  -2  16 2697.34 257.342  15
  -5  -2 -15 1119.29 264.508  21
   5  -2  15 1777.69 207.883   8
   5  -2  15 1723.17 182.005   7
   5  -2  15 1932.59 232.007  15
  -5   2  15 1737.21 176.910  11
  -5  -2 -14 7278.18 636.756  21
   5  -2  14 7321.61 411.185   8
   5  -2  14 7103.17 389.657   7
   5  -2  14 7480.56 592.310   1
  -5   2  14 7551.53 387.410  11
  -5  -2 -13 2572.30 391.253  21
   5  -2  13 2471.86 240.193   8
   5  -2  13 2289.11 341.341   1
   5  -2  13 2255.55 225.414   7
  -5   2  13 2126.91 213.283  11
  -5  -2 -12 3825.80 474.918  21
   5  -2  12 3556.29 278.876   8
  -5   2  12 3651.19 259.037  16
   5  -2  12 4087.86 292.793   7
   5  -2  12 3208.81 403.050   1
  -5   2  12 3927.61 288.683  11
  -5  -2 -11 10616.8 775.185  21
  -5   2  11 11454.6 482.288   5
   5  -2  11 11129.9 517.290   8
  -5   2  11 11469.4 507.773  16
   5  -2  11 11148.1 524.709   7
   5  -2  11 11868.3 755.580   1
  -5  -2 -10 5819.37 551.324  21
  -5   2  10 5802.55 325.211   5
   5  -2  10 5644.51 339.044   8
  -5   2  10 5918.43 351.771  16
  -5  -2  -9 9124.93 686.246  21
  -5   2   9 9431.89 431.837   5
   5  -2   9 8527.84 424.188   8
  -5   2   9 9000.45 450.165  16
  -5  -2  -8 8497.85 647.361  21
  -5   2   8 8834.09 421.987   5
   5  -2   8 8041.25 398.830   8
   5  -2   8 8095.74 603.564   1
   5  -2   8 9520.14 446.355   7
  -5   2   8 8700.58 441.375  16
  -5   2   7 7199.80 368.236   5
   5  -2   7 6217.33 516.615   1
  -5   2   7 6800.79 382.009  16
  -5   2   6 57041.7 1637.61   5
   5  -2   6 55238.3 1960.64   1
  -5   2   6 54970.8 1666.56  16
  -5   2   5 10691.1 469.623   5
   5  -2   5 10200.1 498.634  20
   5  -2   5 11182.4 678.890   1
  -5   2   5 10204.6 484.804  16
  -5   2   4 44654.9 1456.45  22
  -5  -2  -4 47503.8 1739.59  21
   5  -2   4 49021.2 1501.37  20
   5  -2   4 47527.4 1699.07   1
  -5   2   4 46568.9 1432.98  16
  -5   2   3 14827.4 662.964  22
  -5  -2  -3 16070.3 848.054  21
  -5   2   3 17995.1 906.601  21
   5  -2   3 16004.9 699.115  20
   5  -2   3 16823.4 838.923   1
   5   2  -3 16338.8 560.906   6
  -5  -2  -3 15149.8 576.040  11
  -5   2   2 3040.97 278.034  22
  -5  -2  -2 3245.00 364.579  21
  -5   2   2 3943.86 401.757  21
   5   2  -2 3397.13 312.291  20
  -5   2   2 3940.70 252.658   5
   5  -2   2 3702.31 367.550   1
   5  -2   2 3793.40 316.527  20
  -5  -2  -2 3425.11 347.161   3
   5   2  -2 3610.91 215.284   6
  -5  -2  -2 3492.99 233.437  11
  -5  -2  -1 1077.11 141.161  11
  -5   2   1 1217.52 183.990  22
  -5  -2  -1 1373.17 199.418   2
  -5  -2  -1 1007.70 210.024  21
  -5   2   1 1094.08 228.669  21
  -5   2   1 1129.17 147.737   5
   5   2  -1 1249.55 184.616  20
   5  -2   1 1013.24 182.111  20
   5  -2   1 1249.00 226.991   1
   5   2  -1 1052.18 122.020   6
  -5  -2  -1 928.358 192.319   3
  -5  -2   0 243.928 90.9916  11
  -5  -2   0 181.347 102.490   2
  -5   2   0 190.201 109.587  22
   5   2   0 202.188 72.0583   6
  -5   2   0 391.542 162.214  21
   5   2   0 189.686 85.2413  20
   5  -2   0 298.737 126.076  20
  -5   2   0 232.217 87.7149   5
  -5   2   0 92.4833 86.7129  16
   5  -2   0 230.276 132.632   1
  -5  -2   0 145.212 134.652  21
  -5  -2   0 238.385 137.296   3
  -5  -2   1 1068.93 146.711  11
  -5  -2   1 1415.60 228.935   2
   5   2   1 925.902 118.067   6
  -5   2  -1 1230.11 249.914  21
   5  -2  -1 1260.16 210.038  20
  -5   2  -1 1009.87 138.854   5
  -5  -2   1 1086.34 217.055  21
  -5   2  -1 886.553 142.569  16
   5  -2  -1 886.241 192.481   1
  -5  -2   1 959.156 198.695   3
   5  -2  -2 3406.50 333.271   1
  -5   2  -2 3278.78 360.731  21
  -5  -2   2 3973.78 377.431  21
  -5   2  -2 3620.87 242.741   5
   5  -2  -2 3714.55 351.106  20
  -5   2  -2 3295.83 247.601  16
  -5  -2   2 3493.41 347.604   2
  -5  -2   2 4024.26 370.058   3
   5   2   2 3647.88 222.113   6
  -5  -2   2 3801.75 259.935  11
   5  -2  -3 15893.6 747.290   1
  -5   2  -3 15582.1 830.421  21
  -5  -2   3 15706.5 812.239  21
   5  -2  -3 16416.9 807.224  20
  -5   2  -3 15153.6 587.207   5
  -5   2  -3 15300.3 613.872  16
  -5  -2   3 15553.2 803.031   2
  -5  -2   3 16566.0 815.960   3
   5   2   3 16475.8 581.379   6
  -5  -2   3 15868.8 618.840  11
   5  -2  -4 49400.1 1587.42   1
  -5   2  -4 46418.2 1721.48  21
  -5  -2   4 45277.6 1667.73  21
   5  -2  -4 48356.1 1697.21  20
  -5   2  -4 48155.5 1385.38   5
  -5   2  -4 46665.8 1407.94  16
  -5  -2   4 49252.5 1717.69   2
   5   2   4 45847.3 1365.39   6
  -5  -2   4 48714.9 1686.85   3
  -5  -2   4 45032.6 1417.45  11
   5  -2  -5 9437.88 532.773   1
  -5   2  -5 10041.6 647.163  21
  -5  -2   5 10476.1 630.033  21
   5  -2  -5 10688.1 658.992  20
  -5   2  -5 10422.1 436.405   5
  -5   2  -5 9658.99 447.937  16
  -5  -2   5 9632.11 642.838   2
   5   2   5 10317.5 437.526   6
  -5  -2   5 9925.66 627.282   3
  -5  -2   5 10386.3 478.405  11
  -5   2  -6 55342.0 1950.72  21
   5  -2  -6 60355.4 2002.58  20
  -5   2  -6 58525.9 1591.83   5
  -5   2  -6 51415.7 1595.55  16
  -5  -2   6 57128.6 1987.08   2
   5   2   6 54218.1 1597.23   6
  -5  -2   6 57699.6 1944.00   3
  -5   2  -7 6637.29 533.208  21
   5  -2  -7 6099.43 520.977  20
  -5   2  -7 6652.81 326.602   5
  -5  -2   7 7795.71 585.120   2
   5   2   7 6384.62 341.257   6
  -5  -2   7 7904.39 568.474   3
  -5   2  -8 8064.99 589.042  21
   5   2   8 8681.10 613.773   1
   5  -2  -8 8823.48 633.017  20
   5   2   8 8331.04 389.461   8
  -5  -2   8 6764.28 573.993   2
   5   2   8 7538.90 384.589   6
  -5  -2   8 7573.48 569.504   3
  -5  -2   8 8772.56 445.036  11
  -5   2  -9 9557.33 647.817  21
  -5  -2   9 8708.40 405.108   5
   5   2   9 8978.90 629.011   1
   5   2   9 8382.91 409.272   8
  -5  -2   9 8646.83 660.087   2
   5   2   9 8641.55 423.085   6
  -5  -2   9 8917.30 459.316  11
  -5  -2  10 5800.06 316.658   5
   5   2  10 6393.27 525.849   1
   5   2  10 6607.76 353.008   8
  -5  -2  10 5796.68 549.141   2
  -5   2 -10 6834.57 545.481  21
   5   2  10 5977.77 349.512   6
  -5  -2  10 6743.29 385.803  11
   5  -2 -11 10898.0 767.350  20
  -5  -2  11 10767.9 447.469   5
   5   2  11 10940.9 493.399   8
   5   2  11 9542.22 658.614   1
  -5   2 -11 10864.9 712.923  21
   5   2  11 11468.0 506.254   6
  -5  -2  11 10573.3 509.442  11
  -5   2 -12 3722.14 411.051  21
   5  -2 -12 4260.56 481.794  20
   5   2  12 3374.98 267.394   8
   5   2  12 3427.77 382.193   1
  -5  -2  12 3771.34 286.756  11
   5   2  12 4671.79 304.643   6
   5   2  13 2162.93 303.334   1
  -5   2 -13 2477.72 335.945  21
   5  -2 -13 2221.72 356.238  20
   5   2  13 2077.41 219.833   8
   5   2  13 2387.54 267.879  15
   5   2  13 2545.77 270.360  13
   5   2  13 2696.34 234.495   6
  -5  -2  13 2391.85 226.274  11
   5  -2 -14 7006.75 618.538  20
   5   2  14 7387.22 401.114   8
   5   2  14 6546.78 512.771   1
   5   2  14 8359.31 455.141  15
   5   2  14 7046.49 426.033  13
  -5  -2  14 7219.09 385.464  11
   5   2  14 7577.88 399.180   6
   5   2  15 2000.68 204.066   6
   5   2  15 1742.20 177.287   9
   5  -2 -15 1645.15 306.761  20
   5   2  15 1917.57 203.563   8
   5   2  15 1912.08 183.250   7
   5   2  15 1725.24 219.668  15
   5   2  15 1699.03 216.462  13
  -5  -2  15 1538.17 177.267  11
   5   2  16 2878.24 234.802   6
   5   2  16 2645.83 232.875   8
   5   2  16 2569.53 199.508   7
   5   2  16 2748.96 260.209  15
   5   2  16 2999.41 257.458  13
   5   2  17 1626.92 177.466   8
   5   2  17 1257.13 183.113  15
   5   2  17 1348.51 176.128  13
   5   2  18 3334.56 238.857   8
   5   2  18 3287.51 253.579  15
   5   2  18 3085.01 225.702  13
   5   2  19 529.265 115.870   8
   5   2  19 378.535 114.565  15
   5   2  19 498.531 101.150  13
   5   2  20 3026.02 192.954   8
   5   2  20 2604.85 194.960  15
   5   2  21 14422.8 479.255   8
   5   2  21 13862.9 489.862  15
   5   2  22 1442.99 104.165   8
   5   2  22 1411.42 109.725  15
   5  -3  21 1371.91 118.263   8
   5  -3  20 4076.07 227.703   8
   5  -3  20 4201.00 207.590  15
   5  -3  19 805.920 123.963   8
   5  -3  19 827.539 115.409  15
   5  -3  18 514.063 123.087   8
   5  -3  18 785.229 133.848  15
   5  -3  18 719.532 106.283   7
   5  -3  17 723.564 148.039   8
   5  -3  17 681.619 138.889  15
   5  -3  17 817.669 128.419   7
   5  -3  16 4009.15 290.841   8
   5  -3  16 4001.48 265.072   7
   5  -3  16 4356.09 295.526  15
   5  -3  15 32045.1 1041.64   8
   5  -3  15 29370.8 987.935   7
   5  -3  15 30209.1 1029.18  15
  -5   3  15 28855.3 952.062  11
  -5  -3 -14 1543.56 312.767  21
   5  -3  14 1370.87 194.711   8
   5  -3  14 1303.68 282.771   1
   5  -3  14 1095.30 168.176   7
  -5   3  14 1691.82 180.845  11
  -5  -3 -13 7260.77 641.502  21
   5  -3  13 7215.69 404.883   8
  -5   3  13 6587.98 347.899  16
   5  -3  13 7541.21 404.278   7
   5  -3  13 7534.11 605.949   1
  -5  -3 -12 7197.16 627.863  21
   5  -3  12 6101.23 378.212   8
  -5   3  12 6898.85 368.123  16
   5  -3  12 6872.88 389.122   7
   5  -3  12 7171.22 590.704   1
   5  -3  11 2102.31 222.816   8
  -5   3  11 2190.79 217.442  16
  -5   3  10 33553.5 1083.57   5
   5  -3  10 34202.7 1112.23   8
  -5   3  10 33978.1 1118.55  16
   5  -3  10 33076.2 1434.64   1
   5  -3   9 321.518 161.556   1
  -5   3   9 334.215 109.396   5
   5  -3   9 383.266 108.343   8
  -5   3   9 444.155 126.238  16
   5  -3   9 266.575 124.000   7
  -5  -3  -8 11112.4 742.987  21
  -5   3   8 10816.4 484.238   5
   5  -3   8 9543.14 456.272   8
  -5   3   8 10975.7 519.170  17
  -5   3   8 10097.9 499.064  16
   5  -3   8 10601.2 492.375   7
   5  -3   8 10313.1 701.815   1
  -5  -3  -7 13259.0 802.964  21
  -5   3   7 12337.9 527.917   5
   5  -3   7 10893.9 486.999   8
  -5   3   7 11798.4 555.000  17
   5  -3   7 12139.6 748.835   1
   5  -3   7 13163.2 545.296   7
  -5  -3  -6 21719.6 1108.92  21
   5  -3   6 24460.8 926.954  20
  -5   3   6 23672.8 830.863   5
  -5   3   6 22603.6 864.584  17
   5  -3   6 25651.9 1124.15   1
   5  -3   6 23869.8 838.285   7
  -5   3   5 96881.2 2912.79  22
  -5  -3  -5 103155. 3182.73  21
   5  -3   5 102613. 2918.28  20
  -5   3   5 104898. 2784.84   5
   5  -3   5 100771. 3118.69   1
  -5   3   5 101223. 2832.06  17
   5  -3   5 102903. 2774.60   7
  -5   3   4 6707.64 448.057  22
  -5  -3  -4 6474.74 527.802  21
   5  -3   4 6911.17 451.486  20
   5  -3   4 7042.86 520.573   1
   5  -3   4 7471.66 368.026   7
  -5   3   3 25609.8 1022.24  22
  -5  -3  -3 25817.8 1158.95  21
   5  -3   3 27258.6 1046.26  20
   5  -3   3 26698.9 1132.77   1
   5  -3   3 27229.9 881.109   7
  -5  -3  -3 26611.0 1151.30   3
  -5  -3  -3 25425.1 859.264  11
   5   3  -3 25311.8 1038.89  23
  -5   3   2 28996.1 1106.76  22
  -5  -3  -2 27134.9 1193.48  21
  -5   3   2 27307.2 1211.18  21
   5  -3   2 28794.7 1116.96  20
  -5   3   2 28986.1 947.111   5
   5  -3   2 29574.3 1184.46   1
  -5   3   2 26152.1 964.511  17
   5  -3   2 29170.9 918.856   7
  -5  -3  -2 29024.9 1214.78   3
   5   3  -2 29131.0 906.861   6
  -5  -3  -2 27849.7 1046.78   2
  -5  -3  -2 28477.3 924.279  11
   5   3  -2 27003.2 1108.20  23
  -5  -3  -1 1393.01 208.591   2
  -5   3   1 1393.68 222.134  22
  -5  -3  -1 986.184 216.831  21
  -5   3   1 1848.51 292.048  21
   5   3  -1 1064.79 173.264  20
   5  -3   1 1206.84 214.312  20
  -5   3   1 1228.18 158.501   5
  -5   3   1 1311.28 175.579  17
   5  -3   1 1536.04 155.089   7
   5   3  -1 1205.51 138.145   6
   5  -3   1 1331.77 233.309   1
  -5  -3  -1 1318.24 161.650  11
  -5  -3  -1 1478.68 252.784   3
   5   3  -1 1257.52 223.355  23
  -5   3   0 11119.8 640.343  22
  -5  -3   0 13342.2 725.822  21
  -5   3   0 12649.4 735.247  21
   5  -3   0 10811.1 638.044  20
  -5   3   0 12101.9 508.067   5
   5  -3   0 12491.8 670.801   1
  -5   3   0 12147.9 542.114  17
   5  -3   0 12150.8 475.225   7
  -5  -3   0 11755.1 639.440   2
  -5  -3   0 12648.7 721.047   3
   5   3   0 12428.3 489.268   6
  -5  -3   0 12233.9 511.474  11
   5   3   0 11075.1 649.510  23
  -5  -3   1 1084.31 211.493   2
  -5   3  -1 1402.31 238.104  22
  -5  -3   1 1049.66 212.475  21
  -5   3  -1 1527.43 259.228  21
  -5  -3   1 1065.33 221.421   3
  -5   3  -1 1655.03 169.753   5
   5  -3  -1 1545.70 247.135  20
  -5   3  -1 1134.26 165.592  17
   5  -3  -1 1411.79 142.005   7
   5   3   1 1364.99 156.946   6
   5  -3  -1 1419.59 227.070   1
  -5  -3   1 1484.26 172.436  11
  -5  -3   2 28810.4 1175.49  21
  -5   3  -2 28375.3 1208.08  21
   5  -3  -2 29438.7 1191.86  20
  -5   3  -2 27618.8 924.831   5
   5  -3  -2 31466.7 1123.29   1
  -5   3  -2 27303.4 962.128  17
   5  -3  -2 27338.0 862.502   7
  -5  -3   2 25641.4 1129.32   2
  -5  -3   2 29434.9 1211.18   3
   5   3   2 29380.7 920.793   6
  -5  -3   2 28500.5 951.939  11
  -5   3  -3 27618.4 1180.32  21
  -5  -3   3 26938.1 1130.53  21
   5  -3  -3 29358.3 1193.01  20
  -5   3  -3 26944.7 898.534   5
   5  -3  -3 28438.6 1051.93   1
  -5  -3   3 26447.0 1147.85   2
  -5  -3   3 27026.1 1174.91   3
   5   3   3 27853.7 896.773   6
  -5  -3   3 25658.5 920.336  11
  -5   3  -4 5924.64 493.621  21
  -5  -3   4 7115.55 503.902  21
   5  -3  -4 8100.61 565.059  20
  -5   3  -4 7025.98 355.322   5
   5  -3  -4 6903.16 434.606   1
  -5   3  -4 6423.12 364.484  16
  -5  -3   4 7035.33 534.938   2
   5   3   4 7241.41 363.738   6
  -5  -3   4 8138.84 562.406   3
  -5  -3   4 7445.68 394.305  11
  -5   3  -5 107520. 3151.53  21
  -5  -3   5 99969.6 3045.11  21
   5  -3  -5 103341. 3178.98  20
  -5   3  -5 104390. 2757.58   5
  -5   3  -5 99207.4 2777.75  16
  -5  -3   5 100066. 3157.90   2
   5   3   5 103718. 2781.10   6
  -5  -3   5 104602. 3160.27   3
  -5  -3   5 102189. 2820.96  11
  -5   3  -6 23396.1 1069.58  21
   5  -3  -6 24223.4 1118.10  20
  -5   3  -6 23216.3 782.279   5
  -5   3  -6 23027.4 807.417  16
  -5  -3   6 22543.0 1096.45   2
   5   3   6 23143.4 813.465   6
  -5  -3   6 25028.9 1115.79   3
  -5  -3   6 22905.2 845.092  11
  -5   3  -7 11972.8 724.140  21
   5  -3  -7 13618.5 808.067  20
  -5   3  -7 12954.1 500.809   5
  -5  -3   7 12974.6 795.446   2
   5   3   7 13108.5 547.123   6
  -5  -3   7 11746.1 736.630   3
   5   3   8 10647.9 695.097   1
  -5   3  -8 10246.1 658.528  21
   5   3   8 9472.10 438.464   8
  -5  -3   8 9847.42 700.055   2
   5   3   8 10509.8 478.981   6
  -5  -3   8 12156.2 739.454   3
  -5  -3   8 10413.5 509.891  11
  -5  -3   9 427.550 142.351  11
  -5  -3   9 679.147 212.916   3
   5   3   9 340.101 123.151   6
  -5   3  -9 283.066 138.527  21
   5   3   9 274.631 98.8907   8
   5   3   9 595.231 190.953   1
  -5  -3   9 311.348 175.974   2
  -5   3 -10 32452.7 1346.22  21
  -5  -3  10 34260.8 1054.81   5
   5  -3 -10 31558.2 1448.09  20
   5   3  10 35218.7 1404.23   1
   5   3  10 33747.1 1082.94   8
  -5  -3  10 32652.9 1481.65   2
   5   3  10 32827.5 1165.41  13
   5   3  10 34887.7 1120.05   6
  -5  -3  10 33565.1 1131.32  11
  -5   3 -11 1609.20 262.262  21
  -5  -3  11 1729.44 161.860   5
   5  -3 -11 1611.59 309.924  20
   5   3  11 1808.41 199.010   8
   5   3  11 2253.50 309.106   1
   5   3  11 1954.51 205.204   6
  -5  -3  11 1867.02 212.672  11
   5  -3 -12 7018.98 610.627  20
   5   3  12 6328.80 365.475   8
   5   3  12 5635.92 487.484   1
   5   3  12 7031.00 411.507  15
  -5  -3  12 6227.22 374.341  11
   5   3  12 6606.27 380.465   6
   5  -3 -13 6885.94 605.805  20
   5   3  13 7067.02 390.570   9
   5   3  13 6813.81 385.255   8
   5   3  13 7551.87 432.104  15
  -5  -3  13 7426.67 638.344   2
  -5  -3  13 7196.48 394.985  11
   5   3  13 7657.77 407.689   6
   5   3  14 1402.01 175.443   9
   5  -3 -14 1689.73 314.797  20
   5   3  14 1275.73 175.674   8
   5   3  14 1347.94 192.259  15
   5   3  14 1515.28 208.117  13
  -5  -3  14 1634.91 186.381  11
   5   3  14 1712.76 200.384   6
   5   3  15 30461.7 987.891   9
   5   3  15 30839.3 1027.97   8
   5   3  15 30589.6 1056.98  15
   5   3  15 32414.1 1078.89  13
   5   3  15 31501.0 1039.87   6
   5   3  16 4097.87 279.811   6
   5   3  16 3732.52 238.826   9
   5   3  16 3998.98 278.101   8
   5   3  16 4606.90 307.009  15
   5   3  16 4557.77 305.939  13
   5   3  17 758.812 136.375   8
   5   3  17 877.913 153.716  15
   5   3  17 562.353 120.296  13
   5   3  17 595.298 118.178  12
   5   3  18 569.806 115.474   8
   5   3  18 840.702 138.848  15
   5   3  18 900.960 132.681  13
   5   3  18 691.335 106.451  12
   5   3  19 931.163 127.541   8
   5   3  19 912.316 136.756  15
   5   3  19 914.977 116.244  13
   5   3  20 5205.75 253.006   8
   5   3  20 5208.90 259.924  15
   5   3  21 1713.36 122.992   8
   5   3  21 1395.94 119.236  15
   5  -4  21 4253.44 188.703   8
   5  -4  20 1770.06 139.897   8
   5  -4  19 9799.74 398.503   8
   5  -4  18 693.328 121.016   8
   5  -4  18 689.862 101.486   7
   5  -4  17 2961.89 234.527   8
   5  -4  17 3139.62 215.847  15
   5  -4  17 2676.55 203.201   7
   5  -4  16 2023.87 202.858   8
   5  -4  16 2122.26 195.114   7
   5  -4  16 1902.13 186.148  15
   5  -4  15 12249.7 547.872   8
   5  -4  15 12648.7 530.004   7
   5  -4  15 12821.3 536.476  15
  -5   4  15 12563.2 497.424  11
   5  -4  14 37662.0 1216.64   8
   5  -4  14 36694.0 1190.47   7
   5  -4  14 37423.9 1195.51  15
  -5   4  14 37841.2 1169.08  11
   5  -4  13 15903.1 644.361   8
  -5   4  13 14103.5 564.686  16
   5  -4  13 15043.0 621.538   7
  -5  -4 -12 22022.0 1152.35  21
   5  -4  12 21028.6 794.674   8
  -5   4  12 20516.3 753.059  16
   5  -4  12 20659.6 785.818   7
  -5  -4 -11 11746.2 829.966  21
   5  -4  11 12635.8 569.009   8
  -5   4  11 13154.5 564.200  16
   5  -4  11 13999.1 843.092   1
  -5  -4 -10 4626.88 514.500  21
   5  -4  10 5184.56 332.088   8
  -5   4  10 5506.64 358.829  17
  -5   4  10 5339.29 338.995  16
   5  -4  10 4572.54 488.967   1
  -5  -4  -9 3888.35 457.715  21
   5  -4   9 3754.87 275.965   8
  -5   4   9 3847.26 308.557  17
   5  -4   9 3573.63 286.499   7
   5  -4   9 3309.22 418.321   1
  -5  -4  -8 8551.19 662.177  21
   5  -4   8 8060.86 414.073   8
  -5   4   8 8486.99 458.216  17
   5  -4   8 8202.48 431.334   7
   5  -4   8 8975.32 645.095   1
  -5  -4  -7 16446.1 946.320  21
  -5   4   7 17653.9 684.588   5
   5  -4   7 18235.2 667.026   8
  -5   4   7 16503.1 709.872  17
   5  -4   7 17947.9 690.562   7
   5  -4   7 16664.2 915.630   1
  -5  -4  -6 41711.4 1657.95  21
   5  -4   6 39876.5 1442.85  20
  -5   4   6 42258.9 1316.74   5
  -5   4   6 41218.5 1357.73  17
   5  -4   6 41813.9 1300.87   7
   5  -4   6 43498.5 1634.22   1
  -5   4   5 7275.32 509.642  22
  -5  -4  -5 7840.36 600.330  21
   5  -4   5 7866.33 513.334  20
  -5   4   5 8292.90 417.788   5
  -5   4   5 7835.73 442.265  17
   5  -4   5 8394.97 413.988   7
   5  -4   5 8197.24 589.284   1
  -5   4   4 1820.68 267.744  22
  -5  -4  -4 1611.74 276.941  21
   5  -4   4 1736.83 278.217   1
   5  -4   4 1352.69 226.511  20
   5  -4   4 1849.07 192.055   7
   5   4  -4 1629.18 251.779  23
  -5   4   3 11326.1 659.128  22
  -5  -4  -3 11443.5 714.850  21
   5  -4   3 12045.5 669.001  20
  -5   4   3 12151.3 531.036   5
  -5   4   3 11687.2 552.716  17
   5  -4   3 11921.0 698.071   1
   5  -4   3 12167.1 506.988   7
  -5  -4  -3 11820.4 729.688   3
   5   4  -3 11489.7 677.220  23
  -5   4   2 13652.3 735.139  22
  -5  -4  -2 12828.7 747.200  21
   5  -4   2 12673.2 711.485  20
  -5   4   2 13764.1 568.724   5
  -5   4   2 12917.1 593.112  17
   5  -4   2 13478.8 734.233   1
   5  -4   2 14217.7 544.928   7
  -5  -4  -2 14215.9 795.781   3
  -5  -4  -2 13033.1 546.187  11
   5   4  -2 13385.3 749.897  23
  -5   4   1 20712.5 951.947  22
  -5  -4  -1 19477.0 946.273  21
   5  -4   1 18822.5 917.343  20
  -5   4   1 20238.8 738.592   5
  -5   4   1 20183.0 780.289  17
   5  -4   1 19618.9 903.401   1
   5  -4   1 20029.0 697.939   7
  -5  -4  -1 19855.5 874.807   2
  -5  -4  -1 20603.5 998.542   3
   5   4  -1 20219.9 722.284   6
  -5  -4  -1 19499.6 725.335  11
   5   4  -1 20724.1 969.279  23
  -5  -4   0 93.9837 97.3698  11
  -5   4   0 29.4493 114.159  22
   5   4   0 12.4508 82.5971   6
   5  -4   0-24.5366 101.682   1
  -5  -4   0-28.7745 119.244  21
   5  -4   0 87.1421 112.601  20
  -5   4   0-52.4217 84.7925   5
  -5   4   0-46.7565 99.5370  17
   5  -4   0 20.5968 73.1470   7
  -5  -4   0 103.909 114.183   2
  -5  -4   0 129.853 121.265   3
   5   4   0 122.591 122.974  23
  -5   4  -1 21887.0 1003.27  22
  -5  -4   1 20149.1 931.448  21
  -5   4  -1 20340.7 973.539  21
   5  -4  -1 19306.2 952.310  20
  -5   4  -1 20631.8 737.409   5
  -5   4  -1 18879.1 755.057  17
   5  -4  -1 20364.9 877.324   1
   5  -4  -1 20365.2 677.579   7
  -5  -4   1 19268.5 916.172   2
  -5  -4   1 19909.7 985.880   3
   5   4   1 20432.7 726.492   6
   5   4   1 18907.4 704.151  13
  -5  -4   1 19461.9 741.238  11
   5   4   1 20255.6 987.669  23
  -5  -4   2 12738.2 701.471  21
  -5   4  -2 13744.4 761.955  21
   5  -4  -2 13285.1 765.958  20
  -5   4  -2 14527.4 564.796   5
  -5   4  -2 13599.2 585.432  17
   5  -4  -2 13623.3 657.688   1
   5  -4  -2 12545.3 480.342   7
  -5  -4   2 12622.4 724.060   2
  -5  -4   2 14346.9 798.371   3
   5   4   2 13207.9 546.443   6
   5   4   2 13038.8 545.200  13
  -5  -4   2 13165.9 566.648  11
   5   4   2 11661.4 739.920  23
  -5   4  -2 13291.0 770.970  22
  -5  -4   3 11992.1 663.373  21
  -5   4  -3 12411.3 713.679  21
   5  -4  -3 12231.7 737.486  20
  -5   4  -3 12176.2 511.550   5
  -5   4  -3 11424.6 531.889  17
  -5  -4   3 10965.8 697.062   2
   5   4   3 12396.5 520.825   6
  -5  -4   3 11506.0 721.197   3
   5   4   3 12044.8 523.080  13
  -5  -4   3 11697.2 534.741  11
  -5  -4   4 1945.45 300.067   3
  -5   4  -4 1850.18 276.480  21
  -5  -4   4 1688.98 239.811  21
   5  -4  -4 1734.84 300.112  20
  -5   4  -4 1777.01 178.976   5
  -5   4  -4 1480.92 186.264  17
   5   4   4 2007.67 194.277   6
   5   4   4 1741.13 200.906  13
  -5  -4   4 2000.92 216.403  11
  -5  -4   4 1643.83 284.211   2
  -5   4  -5 7044.61 531.955  21
   5  -4  -5 7520.86 597.799  20
  -5   4  -5 8179.81 387.681   5
  -5  -4   5 7939.18 597.714   2
   5   4   5 8495.40 434.029  13
   5   4   5 8152.03 413.300   6
  -5  -4   5 7382.76 580.711   3
  -5  -4   5 7811.76 428.504  11
  -5   4  -6 42370.7 1554.88  21
   5  -4  -6 42152.4 1669.90  20
  -5   4  -6 42195.8 1255.27   5
  -5   4  -6 40396.9 1280.38  16
  -5  -4   6 43105.5 1669.81   2
   5   4   6 42333.2 1337.42  13
   5   4   6 41359.3 1308.97   6
  -5  -4   6 41120.4 1628.18   3
  -5  -4   6 41454.2 1341.22  11
  -5   4  -7 17384.4 863.772  21
   5   4   7 16499.6 620.749   8
  -5  -4   7 17907.2 968.004   2
   5   4   7 16788.7 703.102  13
   5   4   7 17728.9 684.025   6
  -5  -4   7 17365.5 936.084   3
  -5   4  -8 8165.79 564.550  21
   5   4   8 8189.60 396.496   8
  -5  -4   8 8143.83 650.001   2
   5   4   8 8833.94 471.075  13
   5   4   8 8415.38 436.627   6
  -5  -4   8 8386.13 636.656   3
  -5  -4   8 8013.45 444.858  11
   5   4   9 3465.09 403.434   1
   5  -4  -9 3861.47 461.155  20
   5   4   9 3921.49 270.239   8
  -5  -4   9 3936.52 461.416   2
   5   4   9 3826.87 311.787  13
   5   4   9 3716.15 285.122   6
  -5  -4   9 3721.21 295.649  11
  -5  -4   9 3817.55 443.266   3
   5   4  10 4841.70 455.388   1
   5  -4 -10 4766.35 505.610  20
   5   4  10 4960.45 310.616   8
   5   4  10 5323.74 335.923  15
  -5  -4  10 4396.54 497.670   2
   5   4  10 5419.51 369.582  13
   5   4  10 5406.41 343.795   6
  -5  -4  10 5296.65 347.539  11
  -5  -4  11 12097.1 485.225   5
   5  -4 -11 13043.1 845.710  20
   5   4  11 12836.4 578.703   9
   5   4  11 11150.4 699.061   1
   5   4  11 13044.0 546.137   8
   5   4  11 13099.5 564.654  15
  -5  -4  11 11110.3 806.650   2
   5   4  11 13197.1 614.335  13
   5   4  11 12748.3 567.029   6
  -5  -4  11 13113.2 581.765  11
   5  -4 -12 21577.9 1112.84  20
   5   4  12 20730.8 786.724   9
   5   4  12 19896.6 756.917   8
   5   4  12 21434.8 791.874  15
   5   4  12 20827.4 792.828   6
   5  -4 -13 15101.5 931.769  20
   5   4  13 16950.5 655.079   9
   5   4  13 16106.0 640.826   8
   5   4  13 16454.7 657.322  15
  -5  -4  13 14070.0 914.434   2
   5   4  13 16392.6 664.810   6
   5   4  14 38680.8 1190.36   9
   5   4  14 37351.4 1192.09   8
   5   4  14 37837.8 1209.55  15
   5   4  14 37669.4 1245.41  13
   5   4  14 37492.5 1213.43   6
   5   4  15 13233.9 521.762   9
   5   4  15 13283.6 548.786   8
   5   4  15 12896.0 554.074  15
   5   4  15 12996.2 572.466  13
   5   4  15 12779.2 551.481   6
   5   4  16 2014.48 196.454   6
   5   4  16 2041.43 171.063   9
   5   4  16 2301.15 204.821   8
   5   4  16 1942.33 194.922  15
   5   4  16 2113.44 212.849  13
   5   4  16 2302.50 206.352  12
   5   4  17 3193.29 228.922   6
   5   4  17 3448.98 235.732   8
   5   4  17 3212.64 230.680  15
   5   4  17 2973.30 234.563  13
   5   4  17 3103.23 221.543  12
   5   4  18 899.299 132.954   8
   5   4  18 884.863 126.797  15
   5   4  18 1011.37 133.888  13
   5   4  18 926.129 120.580  12
   5   4  19 9624.30 380.955   8
   5   4  19 9883.36 383.781  15
   5   4  19 9461.35 370.729  13
   5   4  20 1602.77 126.918   8
   5   4  20 1589.99 123.256  15
   5   4  21 4681.77 193.632   8
   5  -5  20 3670.57 179.061   8
   5  -5  19 5217.94 249.939   8
   5  -5  18 713.823 115.769   8
   5  -5  17 5536.91 297.711   8
   5  -5  17 5064.82 269.841   7
   5  -5  16 15947.8 621.593   8
   5  -5  16 16926.5 606.060   7
   5  -5  15 7009.80 375.541   8
   5  -5  15 6718.58 353.381   7
   5  -5  14 2565.28 233.130   8
   5  -5  14 2895.19 233.908   7
   5  -5  14 2529.21 208.944  15
   5  -5  13 14273.2 607.220   8
  -5   5  13 14384.2 557.741  16
   5  -5  13 15309.5 615.802   7
   5  -5  13 13901.7 568.555  15
  -5  -5 -12 746.144 247.300  21
   5  -5  12 473.746 129.769   8
  -5   5  12 865.203 144.340  16
   5  -5  12 1084.04 271.632   1
   5  -5  11 9103.11 694.556   1
  -5  -5 -11 8456.61 686.960  21
   5  -5  11 9122.31 468.648   8
  -5   5  11 10353.3 496.306  17
  -5   5  11 9997.36 473.609  16
  -5  -5 -10 826.645 236.149  21
  -5   5  10 1134.40 191.319  17
   5  -5  10 995.745 164.009   8
   5  -5  10 1477.25 195.271   7
   5  -5  10 1211.99 273.243   1
  -5  -5  -9 11567.5 791.864  21
   5  -5   9 12431.4 539.955   8
  -5   5   9 11084.2 554.902  17
   5  -5   9 11890.7 544.613   7
   5  -5   9 10502.2 730.388   1
  -5  -5  -8 5050.56 518.604  21
   5  -5   8 5418.16 329.727   8
  -5   5   8 4875.68 352.813  17
   5  -5   8 5485.87 345.877   7
   5  -5   8 5556.94 517.366   1
  -5  -5  -7 55149.8 2039.53  21
   5  -5   7 57446.6 1879.58  20
   5  -5   7 51477.6 1603.70   8
  -5   5   7 57820.4 1725.21  17
   5  -5   7 56149.5 1662.79   7
   5  -5   7 53705.1 1997.11   1
  -5  -5  -6 14652.8 859.098  21
   5  -5   6 14582.4 770.938  20
   5  -5   6 13808.1 572.032   8
  -5   5   6 15440.7 666.789  17
   5  -5   6 14575.5 610.224   7
   5  -5   6 13889.2 821.261   1
  -5   5   5 11433.6 705.736  22
  -5  -5  -5 10683.4 716.584  21
   5  -5   5 11666.2 685.965  20
   5  -5   5 12683.0 537.555   7
   5  -5   5 11688.0 724.871   1
   5   5  -5 10944.3 695.659  23
  -5   5   4 5192.36 459.569  22
  -5  -5  -4 4376.02 444.015  21
   5  -5   4 5146.42 443.395  20
   5  -5   4 4674.89 301.953   7
  -5  -5  -4 4710.96 479.722   3
   5  -5   4 4805.43 445.516   1
   5   5  -4 4527.17 447.278  23
  -5   5   3 2580.89 335.386  22
  -5  -5  -3 2898.93 358.034  21
   5   5  -3 3205.49 235.231   9
   5  -5   3 2900.84 342.661  20
  -5   5   3 3354.71 264.062   5
  -5   5   3 3513.72 293.908  17
   5  -5   3 3182.21 239.736   7
  -5  -5  -3 3310.34 397.078   3
   5  -5   3 2780.64 335.805   1
   5   5  -3 2640.14 347.654  23
  -5  -5  -2 61.3464 123.081  21
   5   5  -2 62.6421 85.1220   9
   5  -5   2 61.9057 119.992  20
   5  -5   2-27.8830 125.922   1
  -5   5   2 86.8145 100.565   5
  -5   5   2 120.779 121.244  17
   5  -5   2 48.7505 86.5721   7
  -5   5   2 64.3799 120.249  22
  -5  -5  -2-35.8525 138.984   3
   5   5  -2 100.022 129.248  23
  -5   5   1 5783.37 484.179  22
  -5  -5  -1 4688.76 418.698  21
   5   5  -1 4739.38 300.997   9
   5  -5   1 4600.99 445.047  20
  -5   5   1 5044.24 318.052   5
  -5   5   1 4724.91 338.152  17
   5  -5   1 4959.13 285.693   7
  -5  -5  -1 3912.91 374.643   2
   5  -5   1 4436.91 400.285   1
  -5  -5  -1 3797.95 422.193   3
   5   5  -1 4874.48 308.786   6
   5   5  -1 4788.57 465.505  23
  -5   5   0-33.5798 130.178  22
   5   5   0 154.553 107.964   6
  -5  -5   0 82.8312 99.1023  21
   5  -5   0-32.5903 116.973  20
   5  -5   0 96.8029 109.299   1
  -5   5   0 56.3372 87.5634   5
  -5   5   0 117.197 117.653  17
   5  -5   0 64.6873 71.5371   7
  -5  -5   0 56.4302 113.223   2
  -5  -5   0 35.3251 155.277   3
   5   5   0 105.159 125.810  23
  -5   5  -1 3663.17 418.685  22
  -5  -5   1 4372.91 394.448  21
   5  -5  -1 5056.66 468.627  20
  -5   5  -1 4773.35 307.890   5
  -5   5  -1 4928.66 338.098  17
  -5  -5   1 4877.17 434.619   2
   5  -5  -1 5304.74 276.457   7
  -5  -5   1 4491.90 462.439   3
   5   5   1 5627.98 329.688   6
   5   5   1 4520.74 285.539  13
   5   5   1 4238.05 457.168  23
  -5   5  -2-35.6923 143.216  22
   5   5   2-57.4697 91.7602   6
  -5  -5   2 97.8930 87.8349  21
   5  -5  -2 103.274 128.593  20
  -5   5  -2 32.2255 104.251  17
   5   5   2 12.9894 90.2776  13
  -5  -5   2 35.4757 137.521   3
  -5  -5   2 191.273 127.915   2
   5   5   2 36.8472 120.720  23
  -5  -5   2 61.4888 103.214  11
  -5   5  -3 2794.48 376.121  22
   5  -5  -3 3157.72 390.430  20
  -5   5  -3 3636.84 277.994  17
  -5  -5   3 3319.78 382.774   2
   5   5   3 3536.45 260.300  13
   5   5   3 3732.67 267.054   6
  -5  -5   3 3242.47 390.283   3
  -5  -5   3 2929.77 259.287  11
   5   5   3 2726.15 394.677  23
   5  -5  -4 4939.80 491.065  20
  -5   5  -4 5072.83 329.479  17
  -5  -5   4 4105.71 447.713   2
   5   5   4 4841.19 317.759  13
   5   5   4 5194.57 326.387   6
  -5  -5   4 5133.36 492.241   3
  -5  -5   4 4575.73 321.751  11
  -5   5  -5 12240.4 690.632  21
   5  -5  -5 12873.4 797.452  20
  -5   5  -5 11635.6 535.077  17
  -5  -5   5 11881.4 769.275   2
   5   5   5 12295.3 551.020  13
   5   5   5 12489.1 551.845   6
  -5  -5   5 11031.1 544.337  11
  -5  -5   6 14392.8 866.988   2
   5   5   6 14976.1 631.333  13
   5   5   6 14164.6 617.049   6
  -5  -5   6 14609.7 641.278  11
   5   5   7 54482.0 1668.16   9
   5   5   7 55601.0 1582.69   8
  -5   5  -7 53411.4 1602.32  16
  -5  -5   7 53227.3 2049.81   2
   5   5   7 56044.6 1679.03  13
   5   5   7 55007.7 1661.33   6
   5  -5  -8 5276.25 541.598  20
   5   5   8 5240.62 312.186   8
  -5  -5   8 4920.51 515.897   2
   5   5   8 6010.46 383.693  13
   5   5   8 5914.28 364.981   6
   5   5   9 11304.3 709.577   1
   5  -5  -9 11678.7 788.154  20
   5   5   9 12247.8 561.744   9
   5   5   9 11710.3 500.749   8
   5   5   9 11230.7 493.249  15
  -5  -5   9 11748.2 811.560   2
   5   5   9 11381.5 558.728  13
   5   5   9 11954.3 547.256   6
   5   5  10 1380.66 186.078   6
   5   5  10 1142.82 184.869   9
   5   5  10 1530.59 184.537   8
   5  -5 -10 1057.79 254.486  20
   5   5  10 1120.06 153.008  15
   5   5  10 1008.56 217.144   1
   5   5  10 813.568 185.078  13
  -5  -5  10 1204.65 277.022   2
   5   5  11 9803.60 486.906   9
   5  -5 -11 8687.09 690.155  20
   5   5  11 9578.12 450.215   8
   5   5  11 9285.98 438.198  15
  -5  -5  11 9802.58 735.840   2
   5   5  11 9662.33 505.955  13
   5   5  11 9820.43 482.434   6
   5   5  12 624.663 134.360   6
   5   5  12 818.194 158.323   9
   5  -5 -12 548.248 203.748  20
   5   5  12 753.334 146.154   8
   5   5  12 979.216 154.262  15
   5   5  12 959.706 178.053  13
   5   5  13 14837.5 601.946   9
   5   5  13 14648.6 590.550   8
   5   5  13 14216.2 575.080  15
   5   5  13 15379.2 624.141   6
   5   5  14 2463.59 215.631   9
   5   5  14 2893.40 236.025   8
   5   5  14 3104.62 229.784  15
   5   5  14 2937.73 237.900   6
   5   5  15 6894.01 338.887   9
   5   5  15 7320.17 361.810   8
   5   5  15 6793.32 341.260  15
   5   5  15 7464.39 391.176  13
   5   5  15 7158.12 380.866  12
   5   5  15 6516.20 359.986   6
   5   5  16 17168.2 621.097   6
   5   5  16 15577.1 556.721   9
   5   5  16 16104.2 596.778   8
   5   5  16 16295.3 583.334  15
   5   5  16 17017.6 633.308  13
   5   5  16 16267.8 615.828  12
   5   5  17 5589.26 292.025   6
   5   5  17 5521.00 285.512   8
   5   5  17 5124.47 266.308  15
   5   5  17 5731.68 305.215  13
   5   5  17 5737.31 293.670  12
   5   5  18 783.574 112.437   8
   5   5  18 862.571 103.147  15
   5   5  18 581.601 105.223  13
   5   5  18 682.067 101.987  12
   5   5  19 5629.06 241.809   8
   5   5  19 4702.55 211.478  15
   5  -6  19 872.508 89.3514   8
   5  -6  18 5461.67 254.108   8
   5  -6  17 5661.87 280.595   8
   5  -6  16 629.995 117.915   8
   5  -6  16 480.492 104.152   7
   5  -6  15 568.835 125.251   8
   5  -6  15 483.071 112.169   7
   5  -6  14 4826.56 300.497   8
   5  -6  14 4773.02 294.118   7
   5  -6  13 23286.0 828.497   8
   5  -6  12 8662.08 439.442   8
  -5   6  12 9054.69 422.879  16
   5  -6  11 4320.08 303.784   8
  -5   6  11 4312.55 303.882  17
   5  -6  11 4217.47 297.621   7
  -5   6  10 561.299 145.970  17
   5  -6  10 487.496 135.209   8
   5  -6  10 745.079 149.440   7
   5  -6  10 625.802 202.413   1
  -5  -6  -9 7630.26 625.171  21
   5  -6   9 6988.26 603.379   1
   5  -6   9 8648.33 432.163   8
  -5   6   9 8013.38 450.938  17
   5  -6   9 7658.26 421.520   7
  -5  -6  -8 6391.96 572.989  21
   5  -6   8 6692.76 573.433   1
   5  -6   8 6672.49 373.446   8
  -5   6   8 6936.08 421.965  17
   5  -6   8 6474.69 382.498   7
   5  -6   7 4931.92 488.134   1
  -5  -6  -7 4820.47 481.188  21
   5  -6   7 5116.62 452.903  20
   5  -6   7 4349.03 300.254   8
  -5   6   7 5158.19 362.489  17
   5  -6   7 5031.96 331.727   7
  -5  -6  -6 633.982 203.723  21
   5  -6   6 638.048 187.572  20
  -5   6   6 832.045 178.281  17
   5  -6   6 477.315 120.694   8
   5  -6   6 797.935 156.844   7
   5  -6   6 446.359 185.449   1
   5   6  -6 609.888 196.024  23
  -5   6   5 5817.69 518.580  22
  -5  -6  -5 4767.19 472.787  21
   5  -6   5 5893.40 503.207  20
   5  -6   5 6561.97 346.423   8
   5  -6   5 6008.89 353.008   7
   5   6  -5 5926.73 529.803  23
   5  -6   5 5893.57 506.083   1
  -5   6   4 6040.16 540.269  22
  -5  -6  -4 5871.06 509.030  21
   5  -6   4 7241.37 564.696  20
  -5   6   4 7315.86 438.432  17
   5  -6   4 7521.09 389.504   7
   5   6  -4 7085.44 582.800  23
   5  -6   4 7178.61 547.807   1
  -5   6   3 8154.91 617.697  22
  -5  -6  -3 6495.26 520.964  21
   5   6  -3 7847.20 378.495   9
   5  -6   3 7294.81 573.491  20
  -5   6   3 7684.20 450.121  17
   5  -6   3 8297.06 405.338   7
   5   6  -3 6660.47 586.816  23
   5  -6   3 6748.68 527.596   1
   5   6  -2 1165.20 172.896   6
  -5   6   2 1052.60 247.852  22
  -5  -6  -2 1029.63 208.922  21
   5   6  -2 895.121 140.561   9
   5  -6   2 1307.89 268.010  20
  -5   6   2 914.019 186.282  17
   5  -6   2 968.924 216.081   1
   5  -6   2 1132.90 158.484   7
   5   6  -2 897.445 240.120  23
  -5   6   1 1834.55 307.223  22
  -5  -6  -1 1465.80 239.919  21
   5   6  -1 1639.85 182.357   9
   5  -6   1 1824.03 300.655  20
  -5   6   1 2145.80 241.033  17
   5  -6   1 1815.95 182.645   7
   5   6  -1 1890.41 210.957   6
   5   6  -1 1831.40 316.774  23
  -5   6   0 7135.33 584.096  22
   5   6   0 6585.63 363.637   9
   5  -6   0 6909.76 569.084  20
  -5   6   0 6290.71 400.130  17
  -5  -6   0 6215.94 494.775   2
   5  -6   0 6207.47 323.667   7
   5   6   0 6025.25 364.796   6
   5   6   0 5889.90 569.577  23
  -5   6  -1 1516.92 302.721  22
   5   6   1 2448.73 223.856   9
   5  -6  -1 1937.24 328.978  20
  -5   6  -1 1685.40 219.373  17
   5  -6  -1 1794.85 165.152   7
   5   6   1 1968.49 211.326   6
  -5  -6   1 1963.28 294.295   2
   5   6   1 1549.79 311.490  23
  -5   6  -2 853.716 248.641  22
   5   6   2 936.845 166.975   6
   5   6   2 711.373 148.467   9
   5  -6  -2 932.707 251.299  20
  -5   6  -2 864.811 170.607  17
   5   6   2 814.166 141.855  13
  -5  -6   2 745.456 208.654   2
   5   6   2 809.842 238.158  23
  -5   6  -3 6648.13 601.722  22
   5   6   3 8425.81 436.392   9
   5  -6  -3 7629.22 615.810  20
  -5   6  -3 7921.45 439.233  17
  -5  -6   3 7414.26 593.219   2
   5   6   3 8227.36 411.391  13
   5   6   3 8072.95 437.515   6
   5   6   3 7464.17 649.865  23
  -5   6  -4 7180.99 625.366  22
   5   6   4 8034.50 432.858   9
   5  -6  -4 6755.73 592.327  20
  -5   6  -4 7708.22 423.634  17
  -5  -6   4 6657.73 579.836   2
   5   6   4 7453.57 401.554  13
   5   6   4 8050.78 429.246   6
  -5  -6   4 7093.49 584.730   3
   5   6   5 6479.69 385.005   9
  -5   6  -5 5956.47 360.948  17
  -5  -6   5 5545.50 533.515   2
   5   6   5 6230.08 369.908  13
   5   6   5 6289.85 377.350   6
  -5  -6   5 6017.49 545.208   3
  -5   6  -5 6011.49 582.902  22
  -5   6  -6 798.895 258.192  22
  -5  -6   6 527.299 199.588   3
   5   6   6 694.475 155.963   6
   5   6   6 602.168 156.244   9
   5   6   6 657.389 152.929  13
  -5  -6   6 629.985 220.234   2
   5   6   7 4968.92 347.881   9
   5  -6  -7 4917.53 519.432  20
  -5  -6   7 4712.56 498.541   2
   5   6   7 4969.04 336.848  13
   5   6   7 5615.20 357.260   6
  -5  -6   7 4732.47 489.719   3
   5  -6  -8 5645.62 558.430  20
   5   6   8 6420.38 342.993   8
  -5  -6   8 5521.18 556.100   2
   5   6   8 6931.52 403.822  13
   5   6   8 6947.22 397.768   6
  -5  -6   8 7410.21 601.318   3
   5  -6  -9 8295.64 662.382  20
   5   6   9 8281.11 393.813   8
  -5  -6   9 6749.80 614.079   2
   5   6   9 8249.29 451.584  13
   5   6   9 7712.24 430.831   6
  -5  -6   9 7226.81 609.623   3
   5   6  10 633.920 139.558   6
   5   6  10 718.412 155.100   9
   5  -6 -10 393.398 182.906  20
   5   6  10 690.123 137.191   8
   5   6  10 609.096 163.407  13
  -5  -6  10 613.781 208.238   2
   5   6  11 4219.76 298.505   9
   5   6  11 4274.86 277.558   8
  -5  -6  11 3851.29 260.252  18
   5   6  11 4284.95 317.173  13
   5   6  11 4519.21 305.391   6
   5   6  12 8499.40 401.186   8
   5   6  12 8347.72 420.726   9
   5   6  12 7628.61 430.669  13
   5   6  12 8621.74 434.085   6
   5   6  13 23549.1 822.590   9
   5   6  13 23407.8 803.213   8
   5   6  13 24187.7 866.591  13
   5   6  13 24146.5 844.712   6
   5   6  14 5081.85 291.334   9
   5   6  14 4948.27 285.297   8
   5   6  14 5597.23 327.649  12
   5   6  14 5133.37 304.442   6
   5   6  15 793.805 125.927   8
   5   6  15 758.940 136.327  12
   5   6  16 357.605 98.5056   8
   5   6  16 411.612 103.921  13
   5   6  16 435.823 105.236  12
   5   6  17 6105.66 277.788   8
   5   6  17 6123.95 290.327  12
   5   6  18 5732.41 247.534  12
   5  -7  18 1639.09 107.566   8
   5  -7  17 2865.81 169.111   8
   5  -7  16 9546.39 378.043   8
   5  -7  15 784.981 120.449   8
   5  -7  15 737.619 112.527   7
   5  -7  14 649.843 120.041   8
   5  -7  14 468.322 112.724   7
   5  -7  13 617.962 128.836   8
   5  -7  12 19324.3 702.274   8
  -5   7  12 18288.1 688.969  17
  -5   7  12 18731.1 668.167  16
   5  -7  12 19502.2 705.526   7
   5  -7  11 11326.3 500.672   8
  -5   7  11 11737.5 517.524  17
   5  -7  11 11141.9 504.152   7
   5  -7  10 15114.8 616.706   8
  -5   7  10 15976.5 652.922  17
   5  -7  10 15650.0 634.359   7
   5  -7   9 8111.52 416.506   8
  -5   7   9 8947.93 467.185  17
   5  -7   9 8493.84 432.774   7
   5  -7   8 12354.3 527.809   8
  -5   7   8 11480.1 568.227  17
   5  -7   8 11975.0 538.541   7
  -5  -7  -8 11394.5 775.068   3
   5  -7   7 2754.97 354.741   1
   5  -7   7 3090.00 245.346   8
  -5   7   7 3189.66 286.155  17
   5  -7   7 3567.77 267.167   7
  -5  -7  -7 2791.07 380.275   3
   5  -7   6 228.688 162.390   1
   5  -7   6 168.262 143.827  20
   5  -7   6 159.172 94.3295   8
   5  -7   6 275.424 127.520   7
  -5  -7  -6 273.771 171.971   3
   5   7  -6 107.498 153.135  23
  -5   7   5 6457.13 572.826  22
   5  -7   5 6833.49 563.527  20
   5  -7   5 5811.31 498.932   1
   5  -7   5 7216.29 369.967   8
   5  -7   5 7668.71 393.478   7
  -5  -7  -5 5853.21 549.679   3
   5   7  -5 6358.28 576.013  23
  -5   7   4 14313.8 884.534  22
   5  -7   4 13935.8 846.595  20
  -5   7   4 15849.4 697.680  17
   5  -7   4 15358.3 616.446   7
  -5  -7  -4 17401.4 957.013   3
   5   7  -4 15093.2 907.504  23
  -5   7   3 4678.41 500.315  22
   5   7  -3 5102.08 293.730   9
   5  -7   3 4699.17 480.023  20
  -5   7   3 4719.95 357.139  17
   5  -7   3 4897.77 306.200   7
  -5  -7  -3 5182.16 508.373   3
   5   7  -3 5426.18 353.829   6
   5   7  -3 4080.58 477.075  23
  -5   7   2 4262.22 466.039  22
   5   7  -2 3903.60 268.466   9
   5  -7   2 3650.08 430.687  20
  -5   7   2 4392.60 338.059  17
   5  -7   2 4067.16 270.159   7
   5   7  -2 4466.78 316.809   6
  -5  -7  -2 4389.91 467.874   3
   5   7  -2 4810.50 507.010  23
  -5   7   1 4629.10 487.729  22
   5   7  -1 4298.54 287.371   9
   5  -7   1 4087.89 455.314  20
  -5   7   1 4570.76 345.665  17
   5  -7   1 4088.13 264.187   7
   5   7  -1 4834.62 333.262   6
  -5  -7  -1 3949.84 451.244   3
   5   7  -1 3841.18 466.013  23
  -5   7   0 39438.4 1622.00  22
   5   7   0 38768.1 1206.33   9
   5  -7   0 37186.9 1576.11  20
  -5   7   0 36316.3 1263.61  17
   5  -7   0 36976.3 1138.24   7
   5   7   0 39390.3 1253.92   6
  -5  -7   0 35823.5 1548.64   3
   5   7   0 36286.4 1602.78  23
  -5   7  -1 4425.56 488.422  22
   5   7   1 4659.14 310.306   9
   5  -7  -1 3744.25 452.189  20
  -5   7  -1 4691.34 334.617  17
  -5  -7   1 3578.14 397.785   2
   5   7   1 4252.19 316.443   6
  -5  -7   1 4546.82 472.879   3
   5   7   1 3886.99 464.727  23
  -5   7  -2 3409.72 439.234  22
   5   7   2 4300.60 301.263   9
   5  -7  -2 5047.29 503.934  20
  -5   7  -2 4794.22 338.397  17
  -5  -7   2 4467.22 447.585   2
   5   7   2 4399.82 280.509  13
   5   7   2 4243.80 313.482   6
  -5  -7   2 3568.68 424.740   3
   5   7   2 3465.17 463.743  23
  -5   7  -3 4485.30 502.398  22
   5   7   3 4908.06 326.607   9
   5  -7  -3 5063.91 512.647  20
  -5   7  -3 4926.14 339.064  17
  -5  -7   3 4076.02 448.966   2
   5   7   3 4577.76 295.066  13
   5   7   3 4268.25 316.762   6
  -5  -7   3 4370.36 472.930   3
   5   7   3 4278.47 505.039  23
  -5   7  -4 15272.5 938.661  22
   5   7   4 15387.3 652.360   9
  -5   7  -4 15667.1 651.907  17
  -5  -7   4 15577.2 911.902   2
   5   7   4 16198.0 633.441  13
   5   7   4 15056.3 656.077   6
  -5  -7   4 15656.9 904.947   3
  -5   7  -5 6816.89 617.337  22
   5   7   5 6991.23 401.165   9
  -5   7  -5 7097.00 389.752  17
  -5  -7   5 7312.49 607.062   2
   5   7   5 6898.68 382.633  13
   5   7   5 7406.61 418.567   6
  -5  -7   5 6513.70 567.510   3
  -5   7  -6 169.195 164.091  22
  -5  -7   6 294.315 174.778   3
   5   7   6 210.362 121.058   6
   5   7   6 414.363 140.245   9
   5  -7  -6 199.900 160.545  20
   5   7   6 300.086 117.533  13
  -5  -7   6 196.900 168.336   2
  -5   7  -7 3344.85 441.549  22
  -5  -7   7 2365.94 343.862   3
   5   7   7 2724.71 249.777   9
   5  -7  -7 3175.23 412.529  20
  -5  -7   7 3025.75 399.115   2
   5   7   7 2534.90 236.193  13
   5   7   7 2728.93 246.555   6
   5   7   8 12033.0 544.600   9
   5  -7  -8 11199.0 778.559  20
  -5  -7   8 9850.51 740.090   2
   5   7   8 11603.6 538.498  13
   5   7   8 11919.8 545.616   6
  -5  -7   8 10825.3 737.850   3
   5   7   9 8490.92 439.542  13
   5   7   9 8229.97 428.390   6
   5   7   9 7913.82 434.891  12
   5   7  10 15381.2 625.967   9
  -5  -7  10 15420.3 595.294  18
   5   7  10 15317.1 632.371  13
   5   7  10 14128.8 622.973  12
   5   7  10 14808.7 617.607   6
   5   7  11 11359.3 496.093   9
  -5  -7  11 9714.71 432.354  18
   5   7  11 10863.6 500.514  13
   5   7  11 10728.6 506.930  12
   5   7  12 19926.2 712.473   9
   5   7  12 19412.1 728.377  13
   5   7  12 18422.7 719.612  12
   5   7  13 759.739 141.143  13
   5   7  14 782.861 142.460  13
   5   7  15 761.986 125.484  12
   5   7  16 9028.14 363.469   6
   5   7  16 9114.24 348.803  10
   5   7  16 9618.30 381.853  12
   5   7  17 3259.06 181.235  12
   5  -8  16 1441.57 108.880   8
   5  -8  15 828.450 99.4758   8
   5  -8  14 928.717 117.833   8
   5  -8  13 4106.28 240.282   8
   5  -8  12 41.1099 74.5403   8
   5  -8  12 43.2087 77.5417   7
   5  -8  11 6294.19 326.039   8
  -5   8  11 6330.63 336.992  17
  -5   8  11 5964.32 314.267  16
   5  -8  11 6050.18 329.104   7
   5  -8  10 7307.08 370.764   8
  -5   8  10 8348.07 415.906  17
   5  -8  10 7964.90 392.854   7
  -5   8   9 1010.43 170.324  17
   5  -8   9 996.438 146.062   8
   5  -8   9 933.695 155.038   7
   5  -8   8 7110.18 365.705   8
  -5  -8  -8 7104.87 345.762  18
  -5   8   8 6177.67 386.322  17
   5  -8   8 7593.12 384.892   7
   5  -8   7 5197.93 306.366   8
  -5   8   7 4889.09 338.731  17
   5  -8   7 5174.36 318.140   7
   5  -8   6 10513.4 470.393   8
   5  -8   6 11343.8 495.592   7
   5  -8   5 1554.32 172.066   8
  -5   8   5 1792.14 224.507  17
   5  -8   5 1307.50 172.799   7
   5   8  -5 1608.71 197.875   6
   5   8  -4 1273.82 182.767   6
  -5   8   4 1099.50 189.667  17
   5  -8   4 1041.35 149.656   7
   5   8  -3 1319.87 182.481   6
  -5   8   3 1247.66 269.803  22
  -5   8   3 1158.98 193.017  17
   5  -8   3 1471.08 173.302   7
  -5  -8  -3 1135.74 262.132   3
  -5  -8  -2 805.694 234.687   3
   5   8  -2 833.841 157.918   6
  -5   8   2 672.764 217.812  22
   5  -8   2 1085.19 263.649  20
  -5   8   2 724.273 165.744  17
   5  -8   2 738.153 131.606   7
   5   8  -2 931.187 255.872  23
  -5   8   1 8766.20 686.355  22
   5  -8   1 8072.05 649.032  20
  -5   8   1 9371.59 503.752  17
   5   8  -1 10007.2 486.256   6
  -5  -8  -1 8781.30 658.079   3
   5   8  -1 8689.01 696.590  23
  -5   8   0 12760.8 832.322  22
   5   8   0 12015.3 518.980   9
   5  -8   0 11422.3 778.640  20
  -5   8   0 12006.8 577.015  17
   5   8   0 12540.0 568.874   6
  -5  -8   0 11203.5 753.659   3
   5   8   0 12630.1 846.434  23
  -5   8  -1 8193.93 675.160  22
   5   8   1 9401.97 450.865   9
   5  -8  -1 8147.91 663.937  20
  -5   8  -1 8968.54 485.446  17
   5   8   1 10251.7 495.482   6
  -5  -8   1 9533.46 680.909   3
   5   8   1 9830.99 751.045  23
  -5  -8   2 923.453 242.139   3
  -5   8  -2 935.017 239.108  22
   5   8   2 900.085 170.206   6
   5   8   2 618.963 137.364   9
   5  -8  -2 1093.05 269.033  20
  -5   8  -2 807.777 161.489  17
   5   8   2 891.657 137.675  12
   5   8   2 767.562 246.805  23
  -5  -8   3 1266.75 262.265   3
  -5   8  -3 1136.88 271.211  22
   5   8   3 1219.58 173.798   9
  -5   8  -3 1192.33 182.309  17
   5   8   3 1723.62 204.972   6
   5   8   3 1311.75 171.919  12
   5   8   3 1154.49 281.962  23
   5   8   4 1106.45 171.912   6
   5   8   4 1262.56 179.217   9
  -5   8  -4 1273.91 174.117  17
   5   8   4 1169.48 165.526  12
   5   8   5 1488.36 188.076   9
  -5   8  -5 1802.47 191.376  17
   5   8   5 1340.58 175.309  12
   5   8   6 10320.8 493.948   9
   5   8   6 10657.7 479.366  13
   5   8   6 9814.27 489.816   6
   5   8   6 10695.2 483.845  12
   5   8   7 5527.50 340.017   9
  -5  -8   7 4856.13 327.724  18
   5   8   7 5292.86 321.164  13
   5   8   7 5489.94 331.463  12
   5   8   8 7451.72 402.578   9
  -5  -8   8 7118.53 386.090  18
   5   8   8 7464.48 388.099  13
   5   8   8 7649.36 400.852  12
  -5  -8   9 1262.25 159.931  18
   5   8   9 811.964 151.161  13
   5   8   9 954.825 160.506  12
  -5  -8  10 8302.39 376.544  18
   5   8  10 7212.23 387.666  12
   5   8  11 5823.30 328.147  12
   5   8  12 147.809 83.3278   6
   5   8  12 23.1845 95.3476  12
   5   8  13 4119.78 253.162  12
   5   8  13 3922.87 234.407   6
   5   8  14 1129.18 136.769  12
   5   8  14 1174.83 124.614   6
   5   8  15 816.494 97.3578  10
   5   8  16 1378.75 97.8959  10
   5   8  16 1687.18 123.980  12
   5  -9  14 459.875 64.3009   8
   5  -9  13 5773.85 248.532   8
   5  -9  12 987.261 111.013   8
   5  -9  11 1155.40 123.521   8
  -5   9  11 1445.92 133.460  16
   5   9 -11 1523.44 146.417   6
   5  -9  10 2142.72 168.192   8
  -5   9  10 1942.77 182.714  17
   5   9 -10 2038.01 176.535   6
   5  -9   9 2622.16 191.681   8
  -5   9   9 2971.10 230.226  17
   5   9  -9 2687.82 209.174   6
   5  -9   8 10227.6 431.415   8
  -5   9   8 11306.2 494.780  17
   5   9  -8 11110.7 476.620   6
   5   9  -7 816.540 137.997   6
  -5  -9  -7 978.698 129.030  18
   5  -9   7 1001.65 132.491   8
   5   9  -6 226.735 99.7131   6
  -5  -9  -6 101.350 81.7549  18
   5  -9   6 163.065 82.5529   8
  -5  -9  -5 2837.74 224.212  18
   5  -9   5 2310.60 191.458   8
  -5   9   5 2924.05 255.596  17
   5   9  -5 2952.47 241.346   6
  -5  -9  -4 6773.44 363.081  18
  -5   9   4 6073.30 383.304  17
   5   9  -4 5930.16 353.653   6
  -5  -9  -3 11932.7 523.525  18
  -5   9   3 11672.2 548.018  17
   5   9  -3 10764.8 510.113   6
  -5  -9  -2 9864.52 477.479  18
  -5   9   2 9133.15 482.069  17
   5   9  -2 9609.19 468.774   6
  -5   9   1 1728.17 208.867  17
   5   9  -1 1793.30 201.446   6
  -5   9   0 6507.27 391.023  17
   5   9   0 6486.27 370.882   6
  -5   9  -1 2016.94 212.514  17
   5   9   1 1846.56 198.309   6
  -5  -9   2 9219.65 473.589  18
  -5   9  -2 9059.47 453.638  17
   5   9   2 9899.21 466.271   6
  -5   9  -3 11853.9 503.810  17
   5   9   3 10427.9 441.223  12
  -5   9  -4 6026.78 328.365  17
   5   9   4 5738.11 309.159  12
  -5  -9   5 3071.10 253.630  18
   5   9   5 2606.63 209.277  12
  -5  -9   6 219.420 111.050  18
   5   9   6 148.395 92.4663  12
  -5  -9   7 891.290 143.885  18
   5   9   7 968.818 138.572  12
  -5  -9   8 11171.6 472.139  18
   5   9   8 11222.8 465.868  12
   5   9   8 10883.5 465.288   6
  -5  -9   9 2519.99 193.644  18
   5   9   9 2464.83 201.650  12
   5   9   9 2701.42 204.389   6
  -5  -9  10 1976.09 158.242  18
   5   9  10 1976.16 176.747  12
   5   9  10 1821.80 164.699   6
   5   9  11 1583.12 155.289  12
   5   9  11 1631.51 147.290   6
   5   9  12 1057.91 126.103  12
   5   9  13 6805.22 292.792  10
   5   9  13 6469.74 289.116  12
   5   9  14 529.504 76.6597  10
   5   9  14 604.442 84.6709  12
   5 -10  10 242.927 57.4952   8
  -5  10  10 300.127 67.0059  16
   5 -10   9 1905.94 132.893   8
  -5  10   9 2287.89 174.289  17
  -5  10   9 2449.35 166.393  16
   5 -10   8 9048.66 346.813   8
  -5  10   8 10202.3 416.970  17
   5  10  -8 10021.5 403.463   6
   5 -10   7 4536.69 223.145   8
   5  10  -7 5015.79 269.784   6
  -5 -10  -6 3706.66 207.923  18
   5  10  -6 3677.06 238.059   6
  -5 -10  -5 1508.86 145.390  18
  -5  10   5 1265.35 161.653  17
   5  10  -5 1427.35 157.684   6
  -5 -10  -4 3468.22 227.612  18
  -5  10   4 3049.84 238.976  17
   5  10  -4 3097.60 227.618   6
   5  10  -3 70.1298 85.6438   6
  -5 -10  -3 55.8724 88.1852  18
  -5  10   3 103.514 106.415  17
  -5 -10  -2 5937.19 321.469  18
  -5  10   2 5358.67 321.332  17
   5  10  -2 5356.07 307.172   6
  -5 -10  -1 2407.30 206.172  18
  -5  10   1 2023.83 203.684  17
  -5 -10   0 10103.7 465.377  18
  -5  10   0 10927.6 471.348  17
  -5 -10   1 2364.21 215.187  18
  -5  10  -1 2264.71 200.009  17
  -5 -10   2 5382.31 319.605  18
  -5  10  -2 5752.72 306.870  17
  -5 -10   3 137.329 102.695  18
  -5  10  -3 89.1375 81.4852  17
   5  10   4 3353.75 229.830   6
  -5 -10   5 1716.65 173.729  18
   5  10   5 1408.39 128.935  12
   5  10   5 1509.63 159.092   6
  -5 -10   6 4163.48 252.824  18
   5  10   6 3671.02 210.494  12
   5  10   6 3900.26 237.260   6
  -5 -10   7 5322.13 279.259  18
   5  10   7 5097.79 250.893  12
   5  10   7 5299.83 273.244   6
  -5 -10   8 10481.8 403.302  18
   5  10   8 9975.47 384.311  12
   5  10   8 10513.4 404.760   6
  -5 -10   9 2053.62 145.849  18
   5  10   9 2239.21 153.870  12
   5  10  10 328.066 73.1393  12
   5  10  11 6510.23 279.121  10
   5  10  11 7141.85 272.264  12
   5  10  12 2816.95 144.411  12
  -5  11   8 2921.15 150.766  16
  -5  11   7-18.4801 51.0570  16
  -5  11   6 6672.08 296.536  17
  -5  11   5 887.368 114.357  17
  -5 -11  -4 707.681 87.8697  18
  -5  11   4 689.307 107.370  17
  -5 -11  -3 5245.18 245.576  18
  -5  11   3 5196.47 268.800  17
  -5 -11  -2 3740.62 211.760  18
  -5  11   2 3811.47 224.951  17
   5  11  -1 75.4571 60.2127   6
  -5 -11  -1 167.797 81.0988  18
  -5  11   1 34.4498 69.1438  17
   5  11   0 619.032 98.0811   6
  -5 -11   0 812.931 113.013  18
  -5  11   0 750.886 108.380  17
   5  11   1 49.4102 58.4926   6
  -5 -11   1-8.89554 70.1885  18
  -5 -11   2 3800.44 225.986  18
  -5 -11   3 5290.71 267.481  18
   5  11   4 635.469 77.4725  10
  -5  11  -4 662.281 75.5110  16
   5  11   5 832.977 85.7965  10
  -5 -11   5 834.377 107.953  18
   5  11   6 7141.93 272.001  10
  -5 -11   6 7128.71 294.977  18
   5  11   7 70.7979 48.8952  10
  -5 -11   7 65.2753 45.3437  14
   5  11   8 2981.97 149.154  10
  -5 -12   0 284.597 53.6083  14
  -5 -12   1 622.217 69.7005  14
  -6   0   0 7215.92 393.315   5
   6   0   0 6616.00 440.686  20
  -6   0   0 7204.79 408.492  16
  -6   0   0 6859.99 472.734   3
  -6   0   0 6795.26 375.864  11
  -6   0  -1 466.122 148.348   3
  -6   0  -1 290.759 104.487  11
  -6   0   1 213.276 106.428  11
  -6   0   1 248.551 123.671   3
   6   0  -1 209.005 105.080  20
  -6   0  -1 211.583 102.508   5
  -6   0   1 286.896 121.825   5
  -6   0  -1 284.375 122.662  16
  -6   0   1 355.165 129.722  16
  -6   0  -2 171.864 104.935   3
  -6   0  -2 215.306 102.541  11
  -6   0   2 205.796 116.035  11
  -6   0   2 76.1068 101.853   3
  -6   0  -2 151.647 157.148  21
  -6   0   2 74.7766 139.705  21
   6   0  -2 50.9098 129.242  20
  -6   0  -2 167.548 108.305   5
  -6   0   2 245.705 110.091   5
  -6   0  -2 78.1025 98.5009  16
  -6   0   2 179.439 113.424  16
  -6   0   3 1606.35 238.808   3
  -6   0  -3 1778.52 191.954   5
  -6   0  -3 1686.20 307.497  21
  -6   0   3 1610.86 303.197  21
   6   0  -3 1498.68 248.802  20
  -6   0  -3 1725.38 208.148  16
   6   0   3 1442.55 294.457   1
  -6   0  -3 1587.35 171.273  11
  -6   0   3 1881.42 203.306  11
  -6   0  -3 1207.26 207.966   3
  -6   0   4 46.8908 107.436  11
  -6   0   4 53.2916 91.5834   3
  -6   0  -4 193.759 165.546  21
  -6   0   4 75.3179 174.495  21
  -6   0  -4 95.0017 90.0577   5
  -6   0   4 102.467 95.9388   5
  -6   0  -4 151.410 106.413  16
   6   0   4-36.6771 147.182   1
  -6   0  -4 148.884 114.989   3
  -6   0  -5 4122.70 462.926  21
  -6   0  -5 4357.33 283.357   5
  -6   0   5 4128.72 290.618   5
   6   0   5 4403.97 461.092   1
   6   0  -5 3978.91 413.991  20
  -6   0   5 4359.11 319.047  16
  -6   0  -5 3724.07 353.475   3
  -6   0   5 4252.64 391.118   3
  -6   0   5 4736.90 323.831  11
  -6   0  -6 5330.68 532.198  21
  -6   0  -6 5708.23 322.640   5
  -6   0   6 5601.14 337.547   5
   6   0  -6 4120.63 437.703  20
   6   0   6 5198.75 513.151   1
  -6   0   6 4793.88 339.236  16
  -6   0   6 5618.68 361.524  11
  -6   0  -7 524.896 213.774  21
   6   0  -7 548.386 193.657  20
  -6   0  -7 632.081 120.614   5
  -6   0   7 494.727 130.464   5
  -6   0   7 696.551 159.977  16
  -6   0  -8 4329.44 492.239  21
   6   0  -8 5288.41 521.578  20
  -6   0  -8 5050.42 293.049   5
  -6   0   8 5716.33 339.527   5
  -6   0   8 5903.35 368.015  16
   6   0   8 5185.73 282.696   6
  -6   0  -9 10731.6 766.784  21
   6   0  -9 10008.2 732.362  20
  -6   0   9 11088.8 494.334   5
   6   0   9 11208.0 754.582   1
  -6   0   9 10778.5 533.216  11
   6   0   9 11031.2 454.892   6
   6   0  10 6249.91 323.391   6
  -6   0 -10 6299.09 585.783  21
   6   0 -10 5778.84 557.599  20
  -6   0  10 6246.27 343.744   5
   6   0  10 5350.54 521.903   1
  -6   0  10 6679.25 394.743  11
   6   0  11 3663.70 246.004   6
  -6   0 -11 3957.92 465.526  21
   6   0 -11 4116.59 488.470  20
  -6   0  11 4177.66 267.732   5
   6   0  11 4011.56 262.068   8
   6   0  11 3671.53 429.527   1
  -6   0  11 4274.26 309.202  11
  -6   0 -12 8748.05 677.713  21
   6   0 -12 9068.18 711.226  20
  -6   0  12 8108.29 379.074   5
   6   0  12 7716.55 391.569   8
   6   0  12 8837.87 442.453   7
   6   0  12 8243.66 628.580   1
  -6   0  12 8681.36 447.326  11
  -6   0  13 1275.76 178.246  11
   6   0  13 1013.28 151.466   8
   6   0  13 1423.12 184.686   7
   6   0  14 3461.10 242.699   8
   6   0  14 3780.88 264.835   7
   6   0  14 3571.38 291.632  15
  -6   0  14 3107.25 243.596  11
   6   0  15 2594.51 208.284   8
   6   0  15 2793.99 214.498   7
   6   0  15 2608.16 249.920  15
   6   0  15 2616.77 240.318  13
  -6   0  15 2261.64 200.582  11
   6   0  16 114.311 73.8184   8
   6   0  16 68.5110 109.045  15
   6   0  16 40.2669 69.1895   7
   6   0  16-37.8759 99.6209  13
   6   0  17 2953.06 201.092   8
   6   0  17 2947.48 215.834  13
   6   0  18 871.992 110.375   8
   6   0  18 907.411 113.650  13
   6   0  19 744.224 93.2458   8
   6   0  20 16.7904 41.4866   8
   6  -1  20 3079.49 148.484   8
   6  -1  20 3595.76 179.224  15
   6  -1  19 1460.22 121.959   8
   6  -1  19 1568.70 140.278  15
   6  -1  18 1606.25 141.584   8
   6  -1  18 1863.42 171.369  15
   6  -1  17 1806.58 162.979   8
   6  -1  17 1784.05 150.978   7
   6  -1  17 1469.96 178.108  15
   6  -1  17 1710.72 162.492  13
   6  -1  16 8155.00 371.243   8
   6  -1  16 8202.15 370.423   7
   6  -1  16 7907.81 389.669  13
   6  -1  15 3613.14 248.351   8
  -6   1  15 4121.97 259.979  11
   6  -1  14 1754.00 178.691   8
   6  -1  14 1643.86 187.445   7
  -6   1  14 1693.95 190.683  11
  -6   1  13 358.827 123.966  11
   6  -1  13 506.882 125.281   8
   6  -1  13 426.346 122.752   7
  -6   1  12 1482.97 196.930  11
  -6  -1 -12 1533.38 305.874  21
   6   1 -12 1498.98 302.046  20
   6  -1  12 1378.38 276.108   1
  -6   1  12 1587.71 164.775   5
   6  -1  12 1478.76 169.514   8
   6  -1  12 1614.05 188.861   7
  -6  -1 -11 15560.9 957.401  21
   6   1 -11 17095.6 994.435  20
  -6   1  11 15996.3 619.612   5
   6  -1  11 16495.9 621.292   8
   6  -1  11 15644.0 666.029   7
   6  -1  11 16943.0 945.546   1
  -6   1  11 17007.4 687.672  11
  -6  -1 -10 19035.9 1069.30  21
   6   1 -10 17961.9 1029.54  20
  -6   1  10 19834.3 723.271   5
   6  -1  10 18837.3 1020.63   1
  -6   1  10 19302.4 750.372  16
  -6   1  10 19757.8 775.835  11
  -6  -1  -9 8955.00 702.772  21
   6   1  -9 8553.87 677.253  20
  -6   1   9 9017.91 440.464   5
  -6   1   9 8742.69 461.347  16
  -6   1   9 9237.37 485.235  11
  -6  -1  -8 10871.2 778.145  21
  -6  -1  -8 11351.6 479.209   5
   6   1  -8 10639.9 748.066  20
  -6   1   8 11079.9 508.689   5
   6  -1   8 9974.60 730.899   1
  -6   1   8 11264.9 535.443  16
  -6  -1  -7 2964.72 226.110   5
  -6  -1  -7 2181.48 364.292  21
   6   1  -7 3544.09 406.183  20
  -6   1   7 3392.71 266.356   5
  -6   1   7 3212.55 275.442  16
  -6  -1  -7 2944.48 340.414   3
   6  -1   7 2522.61 379.319   1
  -6  -1  -6 4854.73 505.506  21
  -6  -1  -6 4867.14 299.210   5
   6   1  -6 4901.68 466.846  20
  -6   1   6 4750.82 316.015   5
   6  -1   6 4789.84 489.404   1
  -6   1   6 4740.09 335.819  16
  -6  -1  -6 3858.19 399.559   3
  -6  -1  -5 23295.8 1192.85  21
   6   1  -5 24030.3 1088.25  20
  -6   1   5 25103.0 869.685   5
   6  -1   5 22367.3 1140.74   1
  -6   1   5 24525.2 902.036  16
  -6  -1  -5 21266.8 1019.42   3
   6   1  -4 6765.77 513.794  20
   6  -1   4 6139.24 549.970   1
  -6  -1  -4 6084.75 489.813   3
   6   1  -3 8195.13 539.886  20
   6  -1   3 8533.19 634.440   1
  -6  -1  -3 7730.70 544.850   3
  -6  -1  -3 8099.77 391.624  11
   6  -1   2 5098.41 491.517   1
  -6   1   2 4798.96 313.800   5
   6   1  -2 4551.22 381.191  20
  -6   1   2 4433.49 322.982  16
  -6  -1  -2 4633.14 417.559   3
  -6  -1  -2 4733.80 294.542  11
  -6  -1  -1 10488.6 714.907  21
   6  -1   1 9479.51 650.373   1
  -6   1   1 9703.90 697.618  21
  -6   1   1 9732.83 464.159   5
   6   1  -1 8414.72 513.785  20
   6  -1   1 8193.07 500.676  20
  -6   1   1 10137.8 495.459  16
  -6  -1  -1 9382.59 598.535   3
  -6  -1  -1 8498.00 432.543  11
  -6  -1   0 1708.45 264.793   3
  -6  -1   0 1333.44 279.179  21
  -6   1   0 2155.27 341.262  21
  -6   1   0 1589.32 190.090   5
   6  -1   0 1384.59 210.994  20
  -6   1   0 1527.06 198.398  16
   6  -1   0 1090.18 242.416   1
  -6  -1   0 1574.40 180.801  11
   6  -1  -1 9743.75 652.970   1
  -6   1  -1 9889.12 701.141  21
  -6  -1   1 9703.23 680.441  21
  -6   1  -1 9234.97 453.199   5
   6  -1  -1 9083.88 567.876  20
  -6  -1   1 9140.85 480.645  16
  -6   1  -1 8873.51 465.254  16
  -6  -1   1 10992.2 637.600   3
  -6  -1   1 8578.23 445.449  11
   6  -1  -2 4215.99 423.505   1
  -6   1  -2 4733.81 473.080  21
  -6  -1   2 4832.84 485.719  21
  -6   1  -2 4547.61 301.118   5
   6  -1  -2 5286.51 436.238  20
  -6  -1   2 4387.14 318.731  16
  -6   1  -2 4179.85 312.016  16
  -6  -1   2 5090.66 434.644   3
  -6  -1   2 5140.90 324.353  11
  -6   1  -3 7541.72 613.587  21
  -6  -1   3 8789.71 644.392  21
  -6   1  -3 7814.57 401.824   5
   6  -1  -3 7689.89 555.393  20
  -6   1  -3 7455.01 416.818  16
  -6  -1   3 7724.46 552.351   3
  -6  -1   3 8393.75 433.764  11
  -6   1  -3 7125.69 373.648  11
  -6   1  -4 6377.46 569.889  21
  -6  -1   4 6776.09 384.017   5
  -6  -1   4 6048.40 545.602  21
  -6   1  -4 6943.14 371.258   5
   6  -1  -4 6685.37 528.822  20
  -6  -1   4 6613.73 399.376  16
  -6   1  -4 6893.03 390.767  16
  -6  -1   4 6367.83 511.165   3
  -6  -1   4 7024.43 401.238  11
   6   1   5 22671.6 1154.80   1
  -6   1  -5 22703.6 1159.70  21
  -6  -1   5 25017.9 863.752   5
   6  -1  -5 24864.1 1128.73  20
  -6   1  -5 24419.2 831.867   5
  -6   1  -5 24095.1 858.429  16
  -6  -1   5 22614.4 1056.70   3
   6   1   5 22238.8 767.580   6
  -6  -1   5 23958.2 881.417  11
  -6   1  -6 4845.03 495.126  21
  -6  -1   6 4347.40 304.376   5
   6  -1  -6 4059.92 437.860  20
  -6   1  -6 5199.15 303.506   5
  -6   1  -6 4289.05 300.034  16
   6   1   6 4584.39 267.229   6
  -6  -1   6 4762.55 442.845   3
  -6  -1   6 4475.35 322.931  11
  -6   1  -7 2598.17 381.900  21
  -6  -1   7 2960.66 243.085   5
   6  -1  -7 3041.73 388.170  20
  -6   1  -7 2554.82 210.795   5
   6   1   7 2563.78 388.103   1
   6   1   7 2742.12 212.591   6
  -6  -1   7 2781.11 344.901   3
  -6   1  -8 11751.7 783.199  21
  -6  -1   8 10989.4 501.606   5
   6  -1  -8 10307.4 740.926  20
  -6   1  -8 11817.4 473.298   5
   6   1   8 10148.9 730.224   1
   6   1   8 10537.7 463.283   6
  -6   1  -9 7439.96 632.099  21
   6  -1  -9 8189.44 661.175  20
  -6  -1   9 8913.32 426.611   5
   6   1   9 8161.48 653.688   1
   6   1   9 8344.86 398.554   6
  -6  -1   9 9105.91 473.855  11
  -6   1 -10 20671.3 1069.99  21
   6  -1 -10 17887.9 1032.78  20
  -6  -1  10 18871.8 701.023   5
   6   1  10 19755.6 1020.08   1
  -6  -1  10 19387.5 767.025  11
   6   1  10 18675.7 691.354   6
  -6   1 -11 15301.0 923.473  21
   6  -1 -11 17071.9 979.657  20
  -6  -1  11 15707.4 606.615   5
   6   1  11 14870.7 597.808   8
   6   1  11 16079.5 909.154   1
  -6  -1  11 17616.4 697.625  11
   6   1  11 18199.7 641.337   6
   6   1  12 1391.16 163.306   6
   6   1  12 1717.23 284.982   1
  -6   1 -12 1499.60 285.319  21
   6  -1 -12 1420.59 293.816  20
   6   1  12 1596.97 174.409   8
  -6  -1  12 1817.65 209.613  11
  -6  -1  13 361.977 131.086  11
   6   1  13 398.086 108.613   6
   6   1  13 249.934 106.457   8
   6   1  13 524.593 128.245   7
   6   1  14 1503.25 166.142   8
   6   1  14 1725.61 186.557   7
   6   1  14 1849.61 222.802  15
   6   1  14 1644.39 207.868  13
  -6  -1  14 1637.21 186.466  11
   6   1  15 3775.57 244.470   9
   6   1  15 3929.28 250.106   8
   6   1  15 4773.53 277.571   7
   6   1  15 4414.92 311.742  15
   6   1  15 4612.27 306.629  13
  -6  -1  15 4032.10 260.655  11
   6   1  16 8314.65 370.645   8
   6   1  16 7892.11 357.621   7
   6   1  16 8459.76 419.682  15
   6   1  16 8289.81 404.485  13
   6   1  17 1727.15 157.869   8
   6   1  17 1369.48 165.101  15
   6   1  17 1697.94 173.031  13
   6   1  18 1439.11 132.833   8
   6   1  18 1586.14 162.475  15
   6   1  18 1444.92 138.463  13
   6   1  19 1649.75 126.361   8
   6   1  19 1854.61 151.403  15
   6   1  20 2749.23 138.696   8
   6   1  20 3631.50 181.404  15
   6  -2  20 11088.1 356.278  15
   6  -2  19 204.055 63.5507   8
   6  -2  19 188.786 74.4101  15
   6  -2  18 2564.05 168.523   8
   6  -2  18 2886.65 197.807  15
   6  -2  17 35.0547 70.9618   8
   6  -2  17 96.8392 87.1049  15
   6  -2  17 133.597 67.0600   7
   6  -2  17 194.021 84.2790  13
   6  -2  16 9242.01 399.743   8
   6  -2  16 9983.40 411.964   7
   6  -2  16 9019.14 433.967  15
   6  -2  16 9409.53 417.868  13
  -6   2  15 596.025 117.330  11
   6  -2  15 454.423 109.012   8
   6  -2  15 574.418 146.380  15
   6  -2  15 411.314 114.862   7
   6  -2  14 4789.25 288.287   8
   6  -2  14 5060.23 308.640   7
  -6   2  14 5196.24 306.352  11
  -6   2  13 252.799 118.364  11
   6  -2  13 184.342 100.439   8
   6  -2  13 351.196 123.644   7
  -6  -2 -12 3779.91 462.227  21
   6   2 -12 3476.69 437.940  20
   6  -2  12 3657.06 256.217   8
  -6   2  12 4205.45 276.315  16
   6  -2  12 4177.65 297.994   7
   6  -2  12 4521.88 471.014   1
  -6   2  12 3749.52 290.665  11
  -6  -2 -11 6371.10 597.301  21
   6   2 -11 6786.07 601.703  20
  -6   2  11 7115.62 365.128   5
   6  -2  11 6598.18 357.003   8
  -6   2  11 7519.48 395.368  16
  -6   2  11 7088.75 408.596  11
  -6  -2 -10 5503.85 556.255  21
   6   2 -10 4239.12 482.362  20
  -6   2  10 5597.12 327.838   5
  -6   2  10 5725.46 351.189  16
  -6   2  10 5592.10 366.531  11
  -6  -2  -9 1113.57 281.629  21
   6  -2   9 723.037 234.439   1
   6   2  -9 1033.52 248.787  20
  -6  -2  -9 921.107 131.179   5
  -6   2   9 942.503 149.827   5
  -6   2   9 945.339 166.277  16
   6  -2   9 1194.15 184.251   7
   6   2  -8 5859.26 549.604  20
  -6   2   8 6995.39 387.035   5
   6  -2   8 6401.87 571.700   1
  -6   2   8 6801.70 407.263  16
   6  -2   8 7494.00 409.896   7
   6   2  -7 3645.50 427.785  20
  -6   2   7 4590.66 310.669   5
   6  -2   7 3783.12 441.897   1
  -6   2   7 4994.81 347.348  16
   6  -2   7 4627.25 314.347   7
  -6  -2  -7 4016.32 422.707   3
   6   2  -6 17102.9 931.872  20
  -6   2   6 19145.0 730.234   5
   6  -2   6 18341.9 997.744   1
  -6   2   6 19144.1 768.911  16
   6  -2   6 18612.1 727.346   7
  -6  -2  -6 18267.5 946.832   3
  -6  -2  -5 2005.43 345.223  21
  -6   2   5 1662.00 199.977   5
   6   2  -5 1592.63 268.784  20
  -6   2   5 1988.63 228.379  16
   6  -2   5 1880.02 313.962   1
  -6  -2  -5 1345.76 255.672   3
  -6  -2  -4 2589.63 371.724  21
   6   2  -4 1887.94 281.748  20
   6  -2   4 1943.93 317.111   1
  -6  -2  -4 2264.82 322.185   3
  -6  -2  -3 2119.33 333.014  21
   6   2  -3 1400.85 232.493  20
   6  -2   3 2584.74 367.569   1
  -6  -2  -3 2245.23 199.427  11
  -6  -2  -3 2406.34 321.051   3
  -6  -2  -2 29229.3 1346.09  21
  -6   2   2 27590.0 1325.59  21
  -6   2   2 29466.6 1013.07   5
   6  -2   2 29094.8 1113.93  20
   6  -2   2 32253.5 1323.37   1
  -6   2   2 29075.4 1042.59  16
  -6  -2  -2 31469.6 1277.80   3
  -6  -2  -2 29373.6 979.596  11
  -6  -2  -1 4839.42 487.418  21
  -6   2   1 5219.15 521.562  21
  -6   2   1 5008.14 324.881   5
   6  -2   1 4706.50 393.394  20
   6  -2   1 4899.76 458.959   1
  -6   2   1 5558.57 357.393  16
  -6  -2  -1 5534.81 465.689   3
  -6  -2  -1 5406.44 324.236  11
  -6  -2   0 27427.1 1257.50  21
  -6   2   0 25918.1 1248.53  21
   6  -2   0 27803.8 1119.01  20
  -6   2   0 25731.7 929.045   5
   6  -2   0 27183.6 1183.85   1
  -6   2   0 28303.0 980.333  16
  -6  -2   0 28675.8 1208.65   3
  -6  -2   0 25529.7 919.095  11
  -6  -2   1 4577.34 476.546  21
  -6   2  -1 4933.10 503.171  21
   6  -2  -1 4970.01 432.383  20
   6  -2  -1 5155.33 457.088   1
  -6   2  -1 4933.39 320.977   5
  -6   2  -1 5047.08 341.409  16
  -6  -2   1 5443.38 470.054   3
   6   2   1 5232.83 282.319   6
  -6  -2   1 4923.86 326.130  11
  -6   2  -2 31145.1 1345.00  21
  -6  -2   2 28321.2 1284.35  21
   6  -2  -2 29302.7 1214.82  20
   6  -2  -2 29065.2 1202.26   1
  -6   2  -2 29536.1 981.476   5
  -6   2  -2 28367.0 1001.02  16
   6  -2  -2 28404.4 902.499   7
  -6  -2   2 29705.8 1248.87   3
   6   2   2 27802.0 906.538   6
  -6  -2   2 29118.9 997.682  11
  -6   2  -2 26942.5 1123.71  22
  -6  -2   3 1497.20 266.202   3
  -6   2  -3 1925.82 333.622  21
  -6  -2   3 2255.86 340.573  21
   6  -2  -3 2332.97 299.289   1
  -6   2  -3 2135.87 209.605   5
   6  -2  -3 1642.57 282.400  20
  -6   2  -3 2248.49 226.530  16
   6   2   3 2296.55 192.154   6
  -6  -2   3 2263.95 230.147  11
  -6  -2   4 1956.20 303.435   3
  -6   2  -4 1739.60 304.903  21
  -6  -2   4 1918.95 312.697  21
  -6   2  -4 1886.78 193.399   5
   6  -2  -4 2396.20 317.915  20
  -6   2  -4 2179.42 224.758  16
   6  -2  -4 1881.31 265.612   1
   6   2   4 1990.05 181.862   6
  -6  -2   4 2134.37 229.731  11
  -6  -2   5 1514.18 275.236   3
  -6   2  -5 1517.50 299.464  21
  -6   2  -5 1766.14 178.414   5
   6  -2  -5 1746.45 303.282  20
  -6   2  -5 1638.03 191.537  16
   6   2   5 1584.71 164.962   6
  -6  -2   5 1714.02 209.656  11
   6   2   6 18374.1 1007.63   1
  -6  -2   6 18374.2 709.157   5
  -6   2  -6 20259.9 1035.28  21
   6  -2  -6 16397.5 942.516  20
  -6   2  -6 18006.2 671.424   5
  -6   2  -6 18493.6 704.319  16
   6   2   6 18123.7 665.825   6
  -6  -2   6 19276.5 972.386   3
  -6  -2   6 16402.7 715.497  11
  -6   2  -7 3649.97 433.620  21
   6   2   7 4294.00 471.761   1
  -6  -2   7 4474.44 299.392   5
   6  -2  -7 4626.28 476.679  20
  -6   2  -7 4359.21 272.089   5
  -6   2  -7 4284.23 284.537  16
   6   2   7 4205.18 277.584   6
  -6  -2   7 4827.43 471.816   3
  -6  -2   7 4327.01 328.705  11
  -6   2  -8 5866.33 555.656  21
  -6  -2   8 7297.21 389.616   5
   6   2   8 7453.14 617.439   1
   6  -2  -8 7243.74 602.393  20
   6   2   8 7394.65 374.167   6
  -6  -2   9 1392.00 199.796  11
   6   2   9 879.665 142.949   6
  -6   2  -9 787.461 217.768  21
   6  -2  -9 1322.57 300.475  20
  -6  -2   9 970.061 154.976   5
   6   2   9 1303.27 276.651   1
  -6   2 -10 4452.78 468.241  21
   6  -2 -10 5842.79 550.881  20
  -6  -2  10 5260.55 310.043   5
   6   2  10 4363.23 465.606   1
  -6  -2  10 6169.19 380.414  11
   6   2  10 5672.85 327.118   6
  -6   2 -11 6675.01 562.037  21
   6  -2 -11 6733.26 610.774  20
  -6  -2  11 6901.41 346.030   5
   6   2  11 6774.06 344.741   8
   6   2  11 6483.12 550.562   1
  -6  -2  11 7000.79 405.659  11
   6   2  11 7519.40 382.391   6
   6   2  12 4359.98 272.600   8
  -6  -2  12 4473.00 313.981  11
   6   2  12 4509.72 289.687   6
  -6  -2  13 200.492 111.078  11
   6   2  13 226.501 97.6156   6
   6   2  13 68.6047 82.9904   8
   6   2  13 94.5051 121.065  15
   6   2  14 5077.93 301.584   6
   6   2  14 5358.40 306.853   9
   6   2  14 5214.58 293.411   8
   6   2  14 5357.57 310.053   7
   6   2  14 5847.92 357.169  15
   6   2  14 5640.46 357.106  13
  -6  -2  14 5367.88 317.496  11
   6   2  15 356.506 97.9322   9
   6   2  15 517.445 110.951   8
  -6  -2  15 542.436 115.232  11
   6   2  15 579.834 143.464  15
   6   2  15 357.904 96.9637   7
   6   2  15 550.736 143.034  13
   6   2  16 9287.19 391.286   8
   6   2  16 9446.97 441.159  15
   6   2  16 9635.19 437.310  13
   6   2  17 132.056 82.9484   8
   6   2  17 174.144 99.6249  15
   6   2  17 71.7590 86.9762  13
   6   2  17 95.6539 72.5183  12
   6   2  18 2894.78 175.587   8
   6   2  18 2937.96 201.245  15
   6   2  18 2813.01 183.925  13
   6   2  19 150.396 58.7862   8
   6   2  19 256.333 81.4938  15
   6   2  19 185.208 59.3628  13
   6   2  20 12078.1 399.166  15
   6  -3  19 973.942 86.2344   8
   6  -3  19 930.120 86.4792  15
   6  -3  18 147.312 63.7972   8
   6  -3  18 228.817 78.1569  15
   6  -3  17 4275.29 232.368   8
   6  -3  17 4806.67 257.264  15
   6  -3  17 4374.36 235.812   7
   6  -3  16 1932.00 163.304   8
   6  -3  16 1722.92 162.744   7
   6  -3  16 1973.22 186.088  15
   6  -3  15 2699.97 203.870   8
   6  -3  15 2802.70 215.281   7
   6  -3  15 2806.76 234.471  15
  -6   3  15 2740.61 198.328  11
   6  -3  14 9056.23 412.901   8
   6  -3  14 9290.14 433.977   7
   6  -3  14 9021.04 452.924  15
  -6   3  14 9726.13 428.970  11
   6  -3  13 1464.98 165.737   8
   6  -3  13 1551.46 182.757   7
  -6   3  13 1659.35 188.207  11
   6  -3  12 2146.30 196.936   8
  -6   3  12 2138.97 201.304  16
  -6   3  12 2324.91 223.479  11
   6   3 -11 153.099 148.401  20
   6  -3  11 148.758 163.493   1
   6  -3  11 109.654 91.0759   8
  -6   3  11 128.612 93.6860  16
   6   3 -10 3916.80 456.528  20
  -6   3  10 4848.19 321.815  16
   6  -3  10 4481.96 313.795   7
   6  -3  10 3551.79 434.809   1
  -6  -3  -9 342.217 193.419  21
   6   3  -9 334.981 172.720  20
   6  -3   9 379.561 176.124   1
  -6   3   9 274.425 109.366   5
  -6   3   9 461.020 142.025  16
   6  -3   9 641.218 147.041   7
  -6  -3  -8 17811.3 1054.87  21
   6   3  -8 17852.9 990.278  20
  -6   3   8 20697.1 766.359   5
  -6   3   8 20593.1 800.904  16
   6  -3   8 20304.3 776.923   7
   6  -3   8 20978.2 1077.72   1
  -6  -3  -7 2592.11 383.546  21
   6  -3   7 2649.29 376.844   1
   6   3  -7 2188.77 327.820  20
  -6   3   7 3205.26 257.462   5
  -6   3   7 2781.19 263.720  16
   6  -3   7 2837.24 252.453   7
  -6  -3  -7 2579.42 351.458   3
  -6  -3  -6 5051.27 524.636  21
   6   3  -6 5040.90 473.292  20
  -6   3   6 6226.89 364.610   5
   6  -3   6 5275.07 507.240   1
  -6   3   6 5525.88 375.618  16
   6  -3   6 6557.72 368.874   7
  -6  -3  -6 3902.69 436.566   3
   6  -3   5 178.852 152.848   1
  -6  -3  -5 80.2960 131.591  21
   6   3  -5 178.295 134.252  20
  -6   3   5 139.277 116.786   5
  -6   3   5 142.162 116.504  16
   6  -3   5 176.269 114.962   7
  -6  -3  -5 322.966 174.423   3
  -6  -3  -4 6912.32 602.107  21
   6   3  -4 6003.91 495.540  20
   6  -3   4 6363.78 561.204   1
   6  -3   4 7361.06 389.364   7
  -6  -3  -4 7792.57 594.047   3
   6   3  -4 6764.54 338.474   6
  -6  -3  -3 36125.5 1530.98  21
  -6   3   3 35305.7 1185.66   5
   6  -3   3 34663.6 1459.19   1
  -6   3   3 35310.7 1220.77  16
   6  -3   3 37710.3 1162.12   7
  -6  -3  -3 36625.1 1498.08   3
   6   3  -3 35411.2 1102.41   6
  -6  -3  -3 36701.4 1138.63  11
  -6  -3  -2 2362.79 352.880  21
   6  -3   2 2986.30 318.983  20
  -6   3   2 3224.03 262.775   5
   6  -3   2 2699.92 346.359   1
  -6   3   2 2721.01 271.716  16
   6  -3   2 3299.04 242.965   7
  -6  -3  -2 2584.43 347.077   3
   6   3  -2 3237.56 226.669   6
  -6  -3  -2 2872.39 239.114  11
  -6  -3  -1 16056.3 889.007  21
   6  -3   1 13316.0 736.488  20
  -6   3   1 14715.1 619.876   5
   6  -3   1 15704.0 825.495   1
  -6   3   1 13987.4 639.550  16
   6  -3   1 15041.0 580.181   7
  -6  -3  -1 14545.2 840.622   3
   6   3  -1 14157.5 559.173   6
  -6  -3  -1 14730.4 608.078  11
  -6   3   0 4786.42 411.386  22
  -6  -3   0 6480.18 544.483  21
  -6   3   0 5197.22 509.847  21
   6  -3   0 5189.06 445.801  20
  -6   3   0 6121.40 357.882   5
   6  -3   0 5196.32 466.544   1
  -6   3   0 5552.02 376.844  16
   6  -3   0 5583.92 308.714   7
  -6  -3   0 5972.59 508.105   3
   6   3   0 5655.18 310.406   6
  -6  -3   0 5617.30 341.847  11
  -6   3  -1 13482.8 740.248  22
  -6  -3   1 14816.0 853.934  21
  -6   3  -1 13991.7 860.031  21
   6  -3  -1 14491.0 798.470  20
  -6   3  -1 14554.6 608.262   5
   6  -3  -1 13366.8 744.444   1
  -6   3  -1 14130.2 629.934  16
   6  -3  -1 14279.4 543.519   7
  -6  -3   1 13743.1 814.360   3
   6   3   1 14672.9 567.532   6
  -6  -3   1 14435.7 612.881  11
  -6   3  -2 2711.23 325.382  22
  -6  -3   2 2671.15 356.790  21
  -6   3  -2 2812.48 381.535  21
   6  -3  -2 3145.39 371.325  20
  -6   3  -2 2811.33 240.058   5
   6  -3  -2 2587.23 306.230   1
  -6   3  -2 3290.01 276.096  16
  -6  -3   2 2937.24 347.606   2
  -6  -3   2 3087.83 381.158   3
   6   3   2 3114.41 232.144   6
  -6  -3   2 3094.29 257.768  11
  -6   3  -3 34201.5 1485.30  21
  -6  -3   3 35876.6 1463.78  21
   6  -3  -3 35284.2 1464.71  20
  -6   3  -3 36477.5 1159.68   5
  -6   3  -3 36289.2 1191.66  16
  -6  -3   3 34897.9 1438.34   2
   6   3   3 37135.2 1138.23   6
  -6  -3   3 37303.4 1499.57   3
  -6  -3   3 35538.8 1188.53  11
  -6   3  -3 33648.2 1391.74  22
  -6   3  -4 6760.98 579.807  21
  -6  -3   4 7458.99 569.263  21
   6  -3  -4 7113.99 581.272  20
  -6   3  -4 7349.84 386.971   5
  -6   3  -4 6380.47 386.307  16
  -6  -3   4 7117.35 575.437   2
   6   3   4 7377.81 374.691   6
  -6  -3   4 6583.96 559.537   3
  -6  -3   4 7504.14 432.994  11
  -6  -3   5 283.631 129.410  11
  -6  -3   5 147.240 157.288   2
  -6  -3   5 36.1579 129.826   3
   6   3   5 276.077 104.693   6
  -6   3  -5-36.6602 142.165  21
   6  -3  -5 183.803 142.555  20
  -6   3  -5 199.181 99.2827   5
  -6   3  -5 179.466 105.162  16
  -6   3  -6 6023.25 530.078  21
   6  -3  -6 5437.62 527.951  20
  -6   3  -6 5700.29 325.476   5
  -6   3  -6 5647.79 341.786  16
  -6  -3   6 5386.83 519.821   2
   6   3   6 5880.15 334.020   6
  -6  -3   6 4910.39 498.722   3
  -6  -3   6 6289.24 384.941  11
  -6  -3   7 2284.30 355.025   2
  -6  -3   7 2667.20 364.211   3
  -6   3  -7 2650.53 358.379  21
   6  -3  -7 3091.13 400.772  20
  -6   3  -7 2827.20 216.563   5
  -6   3  -7 2448.61 220.013  16
   6   3   7 2628.29 374.158   1
   6   3   7 2897.33 234.414   6
  -6  -3   7 3200.81 278.319  11
  -6   3  -8 18524.0 994.786  21
  -6  -3   8 19636.9 740.676   5
   6   3   8 19612.1 1041.07   1
   6  -3  -8 21202.6 1103.60  20
  -6  -3   8 20880.9 1093.77   2
   6   3   8 19648.6 805.102  13
   6   3   8 20519.6 747.440   6
  -6  -3   8 20744.2 1063.49   3
  -6  -3   9 255.311 131.045  11
   6   3   9 389.749 121.804   6
  -6   3  -9 377.299 159.140  21
   6  -3  -9 162.001 178.214  20
  -6  -3   9 448.027 114.529   5
   6   3   9 362.323 184.086   1
   6   3   9 304.382 145.121  13
  -6  -3  10 4384.85 276.476   5
   6  -3 -10 5519.68 541.938  20
   6   3  10 4143.78 443.718   1
   6   3  10 4201.49 332.729  13
  -6  -3  10 4965.44 338.821  11
   6   3  10 4817.42 303.086   6
  -6  -3  11 336.840 132.050  11
   6   3  11 247.865 102.077   6
   6   3  11 272.450 95.3454   8
   6   3  11 153.638 120.338  15
   6   3  11 316.116 151.267  13
   6   3  11 258.834 153.736   1
   6   3  12 2621.20 207.564   8
   6   3  12 2814.88 251.450  15
   6   3  12 2513.79 264.554  13
  -6  -3  12 2375.57 230.610  11
   6   3  12 2675.22 219.114   6
   6   3  13 1399.01 181.644   9
   6   3  13 1326.98 155.037   8
   6   3  13 1415.84 184.669  15
   6   3  13 1544.85 175.830   6
  -6  -3  13 1349.25 179.789  11
   6   3  14 9671.05 431.168   6
   6   3  14 9263.58 422.264   9
   6   3  14 9307.83 403.487   8
   6   3  14 9518.12 448.524  15
   6   3  15 3052.84 217.690   6
   6   3  15 2776.09 200.721   9
   6   3  15 2881.87 201.902   8
   6   3  15 2291.99 185.026   7
   6   3  15 2939.54 231.182  15
   6   3  15 2737.95 235.585  13
   6   3  16 1894.05 159.718   8
   6   3  16 2066.69 182.876  15
   6   3  16 1813.09 184.341  13
   6   3  17 4739.63 233.406   8
   6   3  17 4599.58 255.681  15
   6   3  17 4502.16 255.449  13
   6   3  17 4430.83 236.012  12
   6   3  18 192.059 64.5195   8
   6   3  18 107.095 72.3276  15
   6   3  18 222.511 73.8273  13
   6   3  19 1047.12 83.5160   8
   6   3  19 1139.21 101.029  15
   6   3  19 872.698 85.2095  13
   6  -4  18 2872.69 151.854   8
   6  -4  17 4697.64 227.597   8
   6  -4  16 15244.4 528.044   8
   6  -4  16 15129.0 532.944  15
   6  -4  16 15270.9 541.387   7
   6  -4  15 1038.72 131.725   8
   6  -4  15 1209.64 143.204   7
   6  -4  15 1244.84 150.572  15
   6  -4  14 2545.32 196.727   8
   6  -4  14 2353.73 205.934   7
   6  -4  14 2237.01 203.866  15
  -6   4  14 2436.17 197.416  11
   6  -4  13 3393.85 236.397   8
  -6   4  13 3734.98 256.049  11
   6  -4  12 5152.49 296.230   8
  -6   4  12 4708.87 291.257  16
  -6   4  12 5380.99 325.434  11
   6  -4  11 10291.1 455.112   8
  -6   4  11 11539.9 503.803  16
   6  -4  11 10466.8 496.797   7
  -6  -4 -10 124.278 148.725  21
   6  -4  10 128.287 86.3785   8
   6  -4  10 295.568 166.891   1
  -6   4  10 168.456 108.843  16
   6  -4  10 181.559 115.255   7
  -6  -4  -9 10956.7 799.854  21
  -6   4   9 13036.4 585.097  16
   6  -4   9 13561.2 582.185   7
   6  -4   9 12445.0 801.914   1
  -6  -4  -8 10126.6 747.420  21
  -6   4   8 10766.5 530.165  16
   6  -4   8 11284.1 519.472   7
  -6  -4  -8 11240.9 749.078   3
   6   4  -8 10174.2 448.087   6
   6  -4   8 9943.09 718.609   1
  -6  -4  -7 6363.22 587.001  21
   6   4  -7 5478.77 520.197  20
  -6   4   7 8007.97 415.191   5
  -6   4   7 6860.89 419.536  16
   6  -4   7 7625.74 403.828   7
  -6  -4  -7 7145.76 591.266   3
   6  -4   7 6335.17 557.218   1
   6   4  -7 6386.55 343.342   6
  -6  -4  -6 20277.7 1093.87  21
  -6   4   6 22696.4 820.175   5
  -6   4   6 22026.1 850.321  16
   6  -4   6 21828.4 797.911   7
   6  -4   6 20862.4 1064.29   1
  -6  -4  -6 20814.5 1087.49   3
   6   4  -6 20413.1 735.523   6
  -6  -4  -5 16940.8 955.679  21
   6  -4   5 15751.8 640.915   7
   6  -4   5 14598.6 860.814   1
  -6  -4  -5 14998.9 894.735   3
   6   4  -5 16166.0 612.922   6
  -6  -4  -4 25256.0 1255.25  21
   6  -4   4 27790.3 944.208   7
   6  -4   4 26841.0 1230.51   1
  -6  -4  -4 28125.1 1284.15   3
   6   4  -4 27882.8 918.713   6
  -6  -4  -3 3525.80 415.187  21
   6  -4   3 3496.02 360.519  20
  -6   4   3 3983.70 296.454   5
  -6   4   3 3346.24 297.862  16
   6  -4   3 3785.04 273.254   7
   6  -4   3 3745.99 406.693   1
  -6  -4  -3 3809.32 437.037   3
   6   4  -3 3376.69 251.541   6
  -6  -4  -2 9264.44 677.678  21
   6  -4   2 9206.30 602.887  20
  -6   4   2 10486.5 504.854   5
  -6   4   2 10179.4 521.520  16
   6  -4   2 9833.77 649.151   1
   6  -4   2 9452.89 445.859   7
  -6  -4  -2 9567.65 691.418   3
   6   4  -2 10281.1 459.118   6
  -6  -4  -1 598.991 136.010  11
  -6   4   1 486.141 160.080  22
   6   4  -1 459.688 115.401   6
  -6  -4  -1 672.117 210.937  21
   6  -4   1 537.235 175.407   1
   6  -4   1 603.369 180.023  20
  -6   4   1 449.263 130.059   5
  -6   4   1 606.806 160.663  16
   6  -4   1 497.707 123.918   7
  -6  -4  -1 749.343 223.368   3
  -6   4   0 14300.5 783.897  22
  -6  -4   0 13796.5 816.148  21
   6  -4   0 14535.8 814.584  20
  -6   4   0 14484.6 619.885   5
  -6   4   0 14503.1 640.569  16
   6  -4   0 14298.4 765.915   1
   6  -4   0 13446.7 541.113   7
  -6  -4   0 14272.2 853.863   3
   6   4   0 14114.6 577.578   6
  -6  -4   0 14214.1 603.625  11
  -6  -4   1 657.546 152.951  11
  -6  -4   1 823.593 226.686   3
  -6  -4   1 633.988 180.349   2
  -6   4  -1 500.134 172.069  22
   6   4   1 595.147 125.525   6
  -6  -4   1 528.222 181.655  21
   6  -4  -1 790.959 205.454  20
  -6   4  -1 842.009 161.135   5
  -6   4  -1 794.206 164.679  16
   6  -4  -1 530.955 108.980   7
   6   4   1 623.635 124.348  13
  -6   4  -2 8334.44 620.620  22
  -6  -4   2 9525.67 648.171  21
  -6   4  -2 10945.1 724.764  21
   6  -4  -2 10002.6 679.199  20
  -6   4  -2 10587.6 494.117   5
  -6   4  -2 9655.57 499.468  16
  -6  -4   2 8839.35 631.953   2
   6   4   2 10712.7 481.056  13
  -6  -4   2 9958.84 700.946   3
   6   4   2 10040.1 470.055   6
  -6  -4   2 10377.7 508.959  11
  -6   4  -3 3359.46 393.065  22
  -6  -4   3 2937.63 351.443  21
  -6   4  -3 2976.39 380.726  21
   6  -4  -3 3529.05 411.375  20
  -6   4  -3 3520.60 267.666   5
  -6   4  -3 3789.76 290.928  16
  -6  -4   3 3155.27 376.849   2
   6   4   3 3125.14 260.390  13
   6   4   3 3340.22 258.625   6
  -6  -4   3 4320.04 466.330   3
  -6  -4   3 3706.60 297.469  11
  -6   4  -4 26262.0 1215.04  21
  -6  -4   4 23666.7 1116.02  21
   6  -4  -4 26696.8 1242.23  20
  -6   4  -4 27297.3 925.972   5
  -6   4  -4 28058.6 962.128  16
  -6  -4   4 25903.6 1218.16   2
   6   4   4 27245.1 950.731  13
   6   4   4 27693.5 931.293   6
  -6  -4   4 26209.4 1246.30   3
  -6  -4   4 27339.5 973.954  11
  -6   4  -4 25592.8 1207.11  22
  -6   4  -5 16173.3 883.440  21
   6  -4  -5 17266.6 944.181  20
  -6   4  -5 15331.6 611.872   5
  -6   4  -5 15684.5 644.892  16
  -6  -4   5 14748.0 882.737   2
   6   4   5 15673.1 659.144  13
   6   4   5 15317.5 630.508   6
  -6  -4   5 16522.0 929.812   3
  -6  -4   5 15553.6 675.579  11
  -6   4  -6 22161.2 1064.54  21
   6  -4  -6 22727.0 1139.63  20
  -6   4  -6 21758.0 795.873  16
  -6  -4   6 21562.5 1105.07   2
   6   4   6 21634.6 835.258  13
   6   4   6 21570.2 798.406   6
  -6  -4   6 21822.6 1120.52   3
  -6  -4   6 21837.2 846.312  11
   6   4   7 6732.31 595.955   1
  -6   4  -7 6718.38 540.870  21
   6  -4  -7 7512.23 623.012  20
  -6   4  -7 6967.02 369.832  16
  -6  -4   7 6254.70 582.629   2
   6   4   7 7890.15 439.973  13
   6   4   7 7118.14 387.745   6
  -6  -4   7 7070.47 421.707  11
  -6  -4   7 7165.81 599.472   3
   6   4   8 9432.42 690.017   1
   6  -4  -8 10295.4 747.503  20
  -6  -4   8 9648.25 731.760   2
   6   4   8 11596.6 546.780  13
   6   4   8 10910.7 497.786   6
  -6  -4   8 10497.8 744.287   3
  -6  -4   9 11922.2 506.677   5
   6   4   9 12089.0 759.560   1
   6  -4  -9 11474.9 796.359  20
  -6  -4   9 11163.9 792.694   2
   6   4   9 11906.4 575.567  13
   6   4   9 12618.5 542.133   6
  -6  -4  10 212.937 123.656  11
  -6  -4  10 80.4721 138.356   2
   6   4  10 326.272 115.844   6
   6   4  10 237.202 135.202   9
  -6  -4  10 229.412 89.0887   5
   6   4  10 327.557 116.721  15
   6   4  10 67.9878 116.927  13
   6   4  11 10105.4 491.596   9
   6   4  11 9733.77 420.242   8
   6   4  11 10209.6 468.431  15
   6   4  11 10772.3 522.486  13
   6   4  11 10200.1 473.451   6
   6   4  12 5253.53 327.127   9
   6   4  12 4805.33 274.790   8
   6   4  12 5460.90 317.439  15
   6   4  12 5284.09 349.470  13
   6   4  12 5531.82 321.788   6
   6   4  13 3467.06 253.052   9
   6   4  13 3305.07 221.759   8
   6   4  13 4095.80 267.696  15
   6   4  13 4012.97 291.602  13
   6   4  13 3415.45 249.334   6
   6   4  14 2231.47 189.758   9
   6   4  14 2174.47 173.665   8
   6   4  14 1876.28 182.873  15
   6   4  14 2097.19 189.646   6
   6   4  15 1323.13 147.584   6
   6   4  15 1199.42 134.625   9
   6   4  15 1213.69 131.315   8
   6   4  15 1270.99 147.565  15
   6   4  16 15280.5 520.077   8
   6   4  16 15627.5 546.600  15
   6   4  16 16181.9 581.149  13
   6   4  16 15595.9 559.750  12
   6   4  17 4786.27 217.716   8
   6   4  17 5074.83 236.452  15
   6   4  17 4863.17 253.418  13
   6   4  17 4329.46 227.442  12
   6   4  18 2998.44 148.396   8
   6   4  18 3055.68 159.972  15
   6   4  18 3107.83 175.088  13
   6  -5  17 3947.75 182.520   8
   6  -5  16 1361.24 118.918   8
   6  -5  16 1319.22 127.527   7
   6  -5  15 17706.8 597.692   8
   6  -5  15 18928.5 632.023   7
   6  -5  14 2223.22 174.796   8
   6  -5  14 2613.25 204.704   7
  -6   5  14 2418.55 184.450  11
   6  -5  13 1757.11 164.846   8
   6  -5  13 1608.00 166.991  15
  -6   5  13 1794.78 176.639  11
   6  -5  12 2317.16 189.228   8
  -6   5  12 2170.39 190.228  16
   6  -5  11 3304.82 230.404   8
  -6   5  11 3352.13 253.023  16
   6  -5  11 3487.48 260.319   7
   6  -5  10 3601.68 244.324   8
  -6   5  10 4106.04 289.141  16
   6  -5  10 4393.16 301.269   7
  -6   5   9 633.513 150.940  16
   6  -5   9 1118.37 163.403   7
   6   5  -8 1101.84 146.376   6
  -6  -5  -8 820.783 226.632  21
  -6   5   8 806.302 159.273  16
   6  -5   8 752.498 230.008   1
   6  -5   8 967.501 158.947   7
  -6  -5  -8 1160.24 254.459   3
  -6  -5  -7 1593.09 299.927  21
  -6   5   7 2431.20 242.748  16
   6  -5   7 1885.16 307.878   1
   6  -5   7 2064.10 218.844   7
   6   5  -7 2084.60 199.874   6
  -6  -5  -7 1765.82 310.893   3
  -6  -5  -6 1416.36 287.328  21
   6  -5   6 2234.24 323.069   1
  -6   5   6 2283.49 241.985  16
   6  -5   6 2052.83 214.382   7
   6   5  -6 1895.57 193.451   6
  -6  -5  -6 2014.05 335.889   3
  -6  -5  -5 40004.6 1649.50  21
   6  -5   5 43741.3 1310.27   7
  -6  -5  -5 43907.8 1716.36   3
   6   5  -5 41881.1 1284.74   6
  -6  -5  -4 12497.9 808.522  21
   6  -5   4 14134.7 591.233   7
  -6  -5  -4 15604.1 912.211   3
   6   5  -4 14882.6 595.807   6
   6  -5   4 14299.8 815.365   1
  -6  -5  -3 11763.5 775.995  21
   6   5  -3 14591.9 555.547   9
   6  -5   3 12822.2 746.090  20
  -6   5   3 12280.0 628.565  17
   6  -5   3 14133.3 567.254   7
  -6  -5  -3 12818.6 831.904   3
   6   5  -3 13935.1 574.982   6
   6  -5   3 12944.9 764.680   1
  -6   5   2 34091.0 1430.26  22
  -6  -5  -2 36103.3 1497.04  21
   6   5  -2 39347.7 1194.66   9
   6  -5   2 39573.7 1491.71  20
  -6   5   2 37781.0 1293.71  17
   6  -5   2 37460.7 1176.12   7
  -6  -5  -2 39224.6 1605.73   3
   6  -5   2 35751.5 1427.96   1
   6   5  -2 38620.8 1209.10   6
  -6   5   1 7852.36 574.079  22
  -6  -5  -1 6453.19 537.914  21
   6   5  -1 7299.36 387.299   9
   6  -5   1 6648.21 545.242  20
  -6   5   1 6623.60 427.840  17
   6  -5   1 7345.49 363.646   7
  -6  -5  -1 7369.30 612.554   3
   6   5  -1 7412.87 392.246   6
  -6  -5   0 2073.38 360.286   3
  -6   5   0 2019.90 306.503  22
  -6  -5   0 2265.11 315.324  21
   6   5   0 2523.34 231.198   9
   6  -5   0 2908.44 365.306  20
   6  -5   0 2310.69 191.812   7
   6   5   0 2417.31 227.321   6
  -6   5  -1 5925.97 521.389  22
   6   5   1 7342.52 404.377   9
   6  -5  -1 6544.61 553.603  20
   6   5   1 7235.19 389.318   6
  -6  -5   1 7441.66 610.627   3
  -6   5  -2 35745.3 1518.93  22
   6   5   2 37751.7 1250.62   9
   6  -5  -2 40111.9 1592.99  20
  -6   5  -2 39031.6 1286.21  16
  -6  -5   2 36842.2 1496.11   2
   6   5   2 40130.1 1214.43  13
   6   5   2 39718.6 1244.20   6
  -6  -5   2 38146.4 1599.58   3
  -6   5  -3 13551.8 825.488  22
   6  -5  -3 12954.6 824.480  20
   6   5   3 13505.6 595.953   9
  -6   5  -3 14016.7 612.942  16
  -6  -5   3 12485.9 781.534   2
   6   5   3 13113.7 560.006  13
   6   5   3 13360.4 578.672   6
  -6  -5   3 13106.7 834.665   3
  -6   5  -4 13076.4 836.759  22
   6  -5  -4 14686.9 883.313  20
   6   5   4 14970.5 639.301   9
  -6   5  -4 14634.5 626.096  16
  -6  -5   4 14926.3 863.016   2
   6   5   4 14598.8 608.325  13
   6   5   4 14696.9 614.551   6
  -6  -5   4 14101.6 875.306   3
  -6   5  -5 42227.1 1709.37  22
   6  -5  -5 42501.7 1710.08  20
   6   5   5 41795.8 1363.81   9
  -6   5  -5 42478.1 1336.70  16
  -6  -5   5 42924.2 1700.76   2
   6   5   5 41955.4 1337.09  13
   6   5   5 42840.2 1341.02   6
  -6  -5   5 44333.6 1742.92   3
  -6  -5   6 2078.08 328.274   2
  -6   5  -6 1789.61 319.299  22
  -6  -5   6 1777.31 309.496   3
   6   5   6 2234.73 238.848   9
   6  -5  -6 1845.71 327.315  20
  -6   5  -6 2280.02 217.371  16
   6   5   6 2563.83 240.164  13
   6   5   6 2338.83 223.383   6
  -6  -5   7 1681.77 306.485   2
  -6   5  -7 1531.54 305.006  22
  -6  -5   7 1266.10 278.977   3
   6   5   7 1699.48 209.371   9
   6  -5  -7 2215.22 345.772  20
  -6   5  -7 1813.19 184.064  16
   6   5   7 2261.02 229.952  13
   6   5   7 1987.82 202.977   6
  -6  -5   8 787.551 228.138   2
  -6  -5   8 1024.65 255.690   3
   6   5   8 979.665 158.139   6
   6   5   8 1126.26 189.053   9
   6  -5  -8 513.116 213.546  20
   6   5   8 669.076 209.040   1
   6   5   8 898.949 173.344  13
   6   5   9 744.798 149.806   6
  -6  -5   9 904.178 133.197   5
   6   5   9 860.734 162.262  13
   6   5  10 3892.15 290.084   9
   6   5  10 3819.46 248.313  15
   6   5  10 4406.75 312.107  13
   6   5  10 3857.36 278.967   6
   6   5  11 3059.70 256.944   9
   6   5  11 3511.04 215.576   8
   6   5  11 3074.01 218.184  15
   6   5  11 3530.35 277.988  13
   6   5  11 2942.01 238.448   6
   6   5  12 2563.36 221.740   9
   6   5  12 2497.56 184.564   8
   6   5  12 2577.39 193.154  15
   6   5  12 2361.49 228.786  13
   6   5  12 2513.93 214.625   6
   6   5  13 1754.22 174.195   9
   6   5  13 1478.38 145.726   8
   6   5  13 1806.86 156.063  15
   6   5  13 2016.87 204.706  13
   6   5  13 1947.13 181.443   6
   6   5  14 2488.20 187.855   9
   6   5  14 2197.90 162.256   8
   6   5  14 2031.52 157.380  15
   6   5  14 2297.87 201.352  13
   6   5  14 2212.22 198.303  12
   6   5  14 2228.99 186.892   6
   6   5  15 18992.9 641.773   6
   6   5  15 19616.1 620.857   9
   6   5  15 18775.0 593.847   8
   6   5  15 17486.8 583.180  15
   6   5  15 20127.2 666.626  12
   6   5  16 1476.79 139.927  12
   6   5  17 4554.70 224.677  13
   6   5  17 4296.59 210.786  12
   6  -6  15 3266.85 177.973   8
   6  -6  15 4164.29 218.910   7
   6  -6  14 1973.15 144.740   8
  -6   6  13 700.328 112.412  11
   6  -6  13 679.817 102.867   8
   6  -6  12 5253.46 272.865   8
  -6   6  12 5635.54 286.703  16
   6  -6  12 5819.39 316.132   7
   6   6 -11 837.991 118.760   6
   6  -6  11 860.207 119.765   8
  -6   6  11 1177.09 147.765  16
   6  -6  11 1104.38 150.651   7
   6   6 -10 270.493 90.5662   6
  -6   6  10 213.072 98.7050  16
   6  -6  10 235.656 113.634   7
  -6   6   9 1793.11 201.297  16
   6  -6   9 1452.34 178.389   7
   6   6  -9 1653.91 172.125   6
  -6   6   8 6735.08 391.886  16
   6  -6   8 6921.03 377.246   7
   6   6  -8 6545.56 350.824   6
  -6   6   7 5352.88 353.282  16
   6  -6   7 5486.14 330.749   7
   6   6  -7 4874.95 305.008   6
   6  -6   6 5296.60 324.582   7
   6   6  -6 4720.03 304.755   6
   6  -6   5 4873.09 305.416   7
   6   6  -5 5094.40 316.580   6
  -6   6   4 7667.61 456.920  17
   6  -6   4 7428.84 386.885   7
  -6  -6  -4 7697.09 627.975   3
   6   6  -4 7960.38 407.511   6
   6  -6   3 6299.28 521.444  20
  -6   6   3 6482.83 427.306  17
   6  -6   3 6998.29 365.250   7
  -6  -6  -3 7810.10 627.535   3
   6   6  -3 6962.94 382.461   6
  -6  -6  -2 197.418 168.789   3
  -6   6   2 401.268 158.895  22
   6   6  -2 265.692 122.519   6
   6   6  -2 185.022 98.3831   9
   6  -6   2 427.719 183.681  20
  -6   6   2 188.647 128.332  17
   6  -6   2 358.767 109.624   7
  -6   6   1 6224.50 529.111  22
   6   6  -1 5845.03 334.355   9
   6  -6   1 5274.15 492.125  20
  -6   6   1 5686.12 391.689  17
   6  -6   1 5866.41 312.962   7
   6   6  -1 5583.92 343.969   6
  -6  -6  -1 5762.79 548.335   3
  -6   6   0 11374.9 756.931  22
   6   6   0 11892.6 532.768   9
   6  -6   0 11816.8 762.889  20
  -6   6   0 13287.3 614.432  17
   6   6   0 12507.0 552.759   6
  -6  -6   0 13399.3 838.209   3
  -6   6  -1 4380.21 467.830  22
   6   6   1 5840.75 349.251   9
   6  -6  -1 4900.09 491.104  20
   6   6   1 6352.85 365.680   6
  -6  -6   1 5231.42 516.629   3
  -6  -6   2 232.913 188.782   3
  -6   6  -2 182.496 146.643  22
   6   6   2 396.529 125.634   6
   6   6   2 497.200 140.682   9
   6  -6  -2 405.441 187.220  20
   6   6   2 223.720 91.5932  13
  -6   6  -3 5830.17 551.275  22
   6   6   3 6991.59 396.483   9
   6  -6  -3 7172.47 592.476  20
  -6   6  -3 7659.51 419.510  16
  -6  -6   3 5474.20 502.950   2
   6   6   3 6525.59 354.590  13
   6   6   3 6833.60 390.255   6
  -6  -6   3 7215.68 606.232   3
  -6   6  -4 6993.63 597.560  22
   6   6   4 7827.19 426.193   9
   6  -6  -4 5861.49 566.645  20
  -6   6  -4 7541.07 412.103  16
  -6  -6   4 7225.12 584.589   2
   6   6   4 8651.25 410.367  13
   6   6   4 7080.76 401.127   6
  -6   6  -5 4429.64 473.278  22
   6   6   5 4550.71 322.151   9
   6  -6  -5 3991.63 456.901  20
  -6   6  -5 4742.78 310.033  16
  -6  -6   5 4817.18 476.567   2
   6   6   5 4875.25 311.181  13
   6   6   5 4546.46 309.871   6
   6   6   6 5172.75 341.550   9
  -6   6  -6 4644.67 296.719  16
   6   6   6 4648.78 308.985  13
   6   6   6 5033.29 331.538   6
   6   6   7 5844.21 361.669   9
  -6   6  -7 5737.37 312.022  16
   6   6   7 5401.03 336.608  13
   6   6   7 6049.24 353.867   6
   6   6   8 7183.99 397.662   9
   6   6   8 7151.84 391.146  13
   6   6   8 6949.31 380.479   6
   6   6   9 1924.27 211.965  13
   6   6   9 1567.95 177.989   6
   6   6  10 312.291 108.074   6
   6   6  10 262.862 106.528  13
   6   6  11 919.937 139.217   6
   6   6  11 905.478 147.334   9
   6   6  11 884.851 150.882  13
   6   6  12 6084.51 326.284   9
   6   6  12 5812.51 330.283  13
   6   6  12 5661.63 333.447  12
   6   6  12 6291.78 324.279   6
   6   6  13 728.021 118.414   6
   6   6  13 731.945 124.452   9
   6   6  13 939.653 143.489  13
   6   6  14 2142.39 162.176   9
   6   6  14 2117.36 182.824  13
   6   6  14 1838.98 157.789   6
   6   6  15 3803.52 214.777   6
   6   6  15 4089.48 232.885  13
   6   6  15 4380.31 234.448  12
   6   6  16 3029.61 175.374  12
   6   6  17 1507.70 103.022  12
  -6   7  13 13.7282 60.7784  11
   6  -7  13 152.807 75.1600   7
   6  -7  12 2246.20 181.321   7
  -6   7  11 2304.93 179.683  16
   6  -7  11 2210.43 185.647   7
   6   7 -11 2056.49 163.689   6
   6   7 -10 59.2241 72.3650   6
  -6   7  10 192.809 94.0434  16
   6  -7  10 135.312 92.0278   7
  -6   7   9 2015.02 197.888  16
   6  -7   9 2058.41 191.788   7
   6   7  -9 1935.95 180.208   6
  -6   7   8 5009.88 319.428  16
   6  -7   8 5003.90 300.928   7
   6   7  -8 5073.39 297.027   6
  -6   7   7 4381.45 317.708  17
  -6   7   7 4221.47 300.218  16
   6  -7   7 4063.52 271.458   7
   6   7  -7 4244.81 272.032   6
   6  -7   6 11721.5 506.789   7
   6   7  -6 12639.1 526.669   6
   6  -7   5 2500.80 212.093   7
   6   7  -5 2648.01 229.828   6
  -6   7   4 1686.60 216.070  17
   6  -7   4 1885.63 187.620   7
   6   7  -4 2319.40 212.224   6
  -6   7   3 14853.4 660.055  17
   6  -7   3 14100.8 556.358   7
   6   7  -3 15250.5 614.089   6
   6   7  -2 2801.75 211.685   9
  -6   7   2 3149.27 292.998  17
   6  -7   2 2835.94 214.064   7
   6   7  -2 3396.65 260.698   6
   6   7  -1 2867.67 225.437   9
  -6   7   1 3141.33 280.435  17
   6   7  -1 3427.46 262.570   6
   6   7   0 444.664 127.088   6
   6   7   0 408.790 112.039   9
  -6   7   0 502.948 154.940  17
   6   7   1 2892.31 241.733   9
   6   7   1 2925.62 218.539  12
   6   7   2 3208.66 256.784   9
   6   7   2 3349.12 268.835   6
   6   7   3 14373.7 597.937   9
   6   7   3 14460.1 550.349  13
   6   7   3 14641.2 610.247   6
   6   7   4 2163.59 215.100   9
  -6   7  -4 2320.14 219.600  16
   6   7   4 1797.48 180.900  13
   6   7   4 2137.37 211.312   6
   6   7   5 2744.09 243.295   9
  -6   7  -5 2560.82 220.753  16
   6   7   5 2794.26 221.133  13
   6   7   5 2644.54 233.249   6
   6   7   6 12999.1 559.348   9
  -6   7  -6 12825.8 512.197  16
   6   7   6 12758.1 526.135  13
   6   7   6 12333.7 543.307   6
   6   7   7 3828.40 278.235   9
   6   7   7 4463.82 278.446  13
   6   7   7 4355.87 285.834   6
   6   7   7 3836.75 277.601  12
   6   7   8 5196.62 316.933   9
   6   7   8 5145.71 306.598  13
   6   7   8 5252.06 312.956   6
   6   7   8 5119.29 317.036  12
   6   7   9 1780.79 190.359   9
  -6  -7   9 1718.93 172.884  18
   6   7   9 1774.18 178.852  13
   6   7   9 1827.45 186.119  12
   6   7   9 2007.87 188.430   6
   6   7  10 125.430 87.6562   6
  -6  -7  10 82.4126 71.0489  18
   6   7  10 162.119 93.7420  13
   6   7  10 120.462 96.7112  12
   6   7  11 1898.52 178.077   9
   6   7  11 2243.59 190.327  13
   6   7  11 1950.96 191.002  12
   6   7  11 2291.30 184.805   6
   6   7  12 2254.84 176.224   9
   6   7  12 2072.15 176.318  13
   6   7  12 2231.24 189.600  12
   6   7  12 1845.95 161.713   6
   6   7  13 49.8181 60.2512   6
   6   7  13 173.411 91.6997  12
   6   7  15 395.104 58.7916  10
   6   7  16 983.187 82.5966  12
  -6   8  12 5996.09 250.726  11
  -6   8  11 1732.11 134.547  16
   6   8 -10 651.186 98.1548   6
  -6   8  10 634.940 105.489  16
  -6   8   9 2198.05 181.544  16
   6  -8   9 2094.93 172.981   7
   6   8  -9 2125.66 172.388   6
  -6  -8  -8 5806.03 263.852  18
  -6   8   8 5424.45 304.842  16
   6  -8   8 5428.76 288.193   7
   6   8  -8 5450.89 290.288   6
  -6  -8  -7 4678.98 255.042  18
  -6   8   7 4729.64 291.294  16
   6  -8   7 4282.85 257.625   7
   6   8  -7 4441.86 267.905   6
   6  -8   6 9530.41 411.109   7
   6   8  -6 10073.6 435.763   6
   6   8  -5 316.453 102.728   6
  -6   8   5 372.318 131.145  17
   6  -8   5 281.930 96.4797   7
  -6   8   4 5658.22 358.923  17
   6  -8   4 5035.14 278.824   7
   6   8  -4 6243.23 334.757   6
  -6   8   3 1839.75 214.980  17
   6   8  -3 2352.99 208.900   6
  -6   8   2 2003.92 218.076  17
   6   8  -2 2136.19 199.963   6
  -6   8   1 3448.48 282.188  17
   6   8  -1 3230.41 251.362   6
   6   8   0 3105.37 242.174   6
   6   8   1 3162.15 230.991   9
   6   8   1 3516.47 259.802   6
   6   8   2 1867.84 184.916   9
   6   8   2 2024.28 200.414   6
   6   8   3 2174.77 197.792   9
  -6   8  -3 2213.71 205.585  16
   6   8   3 1824.39 193.194   6
   6   8   3 1777.06 162.324  12
   6   8   4 5999.44 329.226   9
  -6   8  -4 5954.61 325.600  16
   6   8   4 5689.97 329.172   6
   6   8   4 5439.95 294.043  12
   6   8   5 341.718 111.571   6
   6   8   5 386.967 114.441   9
  -6   8  -5 350.267 100.528  16
   6   8   5 297.221 100.536  12
   6   8   6 10125.0 448.465   9
  -6  -8   6 10626.5 464.995  18
  -6   8  -6 9804.36 397.982  16
   6   8   6 10085.7 447.270   6
   6   8   6 9522.39 420.070  12
   6   8   7 4537.62 273.401   9
  -6  -8   7 4447.65 274.504  18
   6   8   7 4575.09 265.634  12
   6   8   7 4205.77 264.516   6
   6   8   8 5679.44 302.997   9
  -6  -8   8 6067.21 302.584  18
   6   8   8 5290.00 292.583  12
   6   8   8 5341.92 293.848   6
  -6  -8   9 2183.18 169.378  18
   6   8   9 2270.74 185.063  12
   6   8   9 2224.77 182.314   6
   6   8  10 668.759 103.130   6
   6   8  10 457.783 98.7029  12
   6   8  11 1802.55 154.181  12
   6   8  11 1783.82 147.729   6
   6   8  12 7177.98 307.084  12
   6   8  13 1251.97 114.878  12
   6   8  14 1181.23 97.5222  12
  -6   9  11 331.319 55.5193  11
  -6   9  10 9120.18 323.244  16
  -6   9   9 621.242 91.4383  16
  -6   9   8 904.476 113.969  16
  -6   9   7 6562.49 316.655  16
   6   9  -7 6653.67 305.301   6
  -6  -9  -6 4513.46 230.440  18
  -6   9   6 4645.40 266.286  16
   6   9  -6 4189.24 242.993   6
  -6  -9  -5 5027.37 263.412  18
   6   9  -5 5371.92 282.264   6
   6   9  -4 995.064 130.030   6
  -6  -9  -4 1096.49 137.810  18
   6   9  -3-42.9942 77.1502   6
  -6  -9  -3 54.0272 82.2631  18
  -6  -9  -2 8820.81 406.544  18
   6   9  -2 8931.59 401.663   6
  -6  -9  -1 1352.45 160.981  18
   6   9  -1 1233.22 149.346   6
  -6  -9   0 4774.80 285.640  18
   6   9   0 3916.92 256.271   6
  -6  -9   1 1438.99 172.187  18
   6   9   1 1273.61 149.489   6
  -6  -9   2 9575.85 426.147  18
  -6   9  -2 8627.18 395.132  16
   6   9   2 8172.35 387.285   6
   6   9   3 43.5312 78.9255   6
  -6   9  -3 10.0060 76.1794  16
   6   9   4 923.927 128.818   6
  -6   9  -4 913.709 121.462  16
  -6  -9   5 5700.49 298.697  18
  -6   9  -5 4839.40 241.038  16
   6   9   5 4742.36 236.077  12
   6   9   5 5642.46 286.316   6
  -6  -9   6 4547.92 253.531  18
   6   9   6 3823.39 212.573  12
   6   9   6 4097.68 238.587   6
  -6  -9   7 6821.95 308.168  18
   6   9   7 6295.88 279.970  12
   6   9   7 6460.67 303.615   6
  -6  -9   8 807.674 107.028  18
   6   9   8 875.367 106.000  12
   6   9   8 962.700 114.169   6
  -6  -9   9 555.916 77.2035  18
   6   9   9 632.624 87.7164  12
   6   9  10 9481.82 344.167  12
   6   9  11 545.390 73.1480  12
  -6  10   8 597.352 69.1726  16
  -6  10   7 2816.70 160.236  16
  -6  10   6 2861.46 171.552  16
  -6 -10  -5 1440.80 102.540  18
  -6 -10  -4 9507.70 349.706  18
  -6  10   4 10217.3 390.280  16
  -6 -10  -3 246.305 71.9627  18
  -6  10   3 144.268 71.0430  16
  -6 -10  -2 1120.04 120.035  18
  -6  10   2 1053.25 128.011  16
  -6 -10  -1 4491.15 236.560  18
  -6  10   1 4298.29 236.645  16
  -6 -10   0 60.1033 76.0072  18
  -6  10   0 16.6204 66.6943  16
  -6 -10   1 4267.97 239.481  18
  -6  10  -1 4363.28 229.028  16
  -6 -10   2 1032.72 125.424  18
  -6  10  -2 1020.40 108.336  16
  -6  10  -3 112.731 57.7285  16
  -6 -10   5 1694.24 136.930  18
  -6 -10   6 2511.35 155.227  18
  -6 -10   7 2528.78 142.452  18
   6  10   8 646.245 71.0746  10
  -6 -11   1 2753.77 138.777  18
  -6 -11   2 2403.54 127.407  18
  -7   0   0 29.7311 82.9363  11
  -7   0   0-16.0150 116.142   5
   7   0   0-38.1375 162.908   1
   7   0  -1 16695.4 952.183   1
  -7   0   1 18113.9 1027.05  21
   7   0   1 18581.6 1001.35   1
  -7   0  -1 17668.8 705.151   5
  -7   0   1 17003.7 707.416   5
  -7   0  -1 16821.8 670.444  11
  -7   0   1 17369.0 695.489  11
   7   0  -2 31360.8 1432.39   1
  -7   0   2 35098.1 1556.45  21
   7   0   2 34361.2 1514.41   1
  -7   0  -2 36866.3 1183.50   5
  -7   0   2 36430.2 1191.81   5
  -7   0  -2 35631.3 1131.93  11
  -7   0   2 35687.6 1178.80  11
  -7   0  -3 445.870 118.819  11
  -7   0   3 524.364 142.470  11
  -7   0  -3 464.708 210.196  21
  -7   0  -3 638.967 149.107   5
   7   0  -3 421.275 192.775   1
   7   0   3 197.862 159.171   1
   7   0  -4 23621.8 1116.59   1
  -7   0  -4 20266.8 1140.54  21
  -7   0  -4 22982.8 837.424   5
   7   0   4 24686.0 1196.95   1
  -7   0   4 23509.5 875.005  11
  -7   0   5 237.287 126.704  11
  -7   0  -5 210.353 179.765  21
   7   0  -5 123.232 110.658  20
  -7   0  -5 155.714 95.1515   5
  -7   0   5 267.685 121.067   5
   7   0   5 158.157 173.851   1
  -7   0   6 289.776 140.455  11
  -7   0  -6 376.612 198.870  21
   7   0  -6 682.061 187.563  20
  -7   0  -6 346.677 109.141   5
  -7   0   6 354.274 125.973   5
   7   0   6 273.303 176.543   1
  -7   0  -7 4597.08 499.593  21
   7   0  -7 4184.62 435.143  20
  -7   0  -7 4255.86 275.921   5
  -7   0   7 4691.13 310.061   5
   7   0   7 4610.44 486.914   1
  -7   0   7 4787.09 336.522  11
  -7   0  -8 733.236 227.831  21
  -7   0  -8 606.763 110.793   5
  -7   0   8 710.888 142.190   5
  -7   0   9-39.9053 87.1628   5
  -7   0  10 544.206 144.728  11
  -7   0  10 569.709 117.258   5
  -7   0  11 1239.38 172.912  11
  -7   0  11 1497.53 153.836   5
  -7   0  12 800.820 147.867  11
   7   0  12 935.734 147.995   7
   7   0  13 3724.97 250.001   7
   7   0  13 4340.29 297.896  15
  -7   0  13 4133.63 263.528  11
   7   0  14 13046.6 496.218   7
   7   0  14 12510.5 526.727  15
   7   0  14 12566.1 526.531  13
  -7   0  14 12718.4 493.914  11
   7   0  15 4035.88 228.457   7
   7   0  15 3865.33 252.543  15
   7   0  15 4540.88 262.790  13
  -7   0  15 4093.58 226.545  11
   7   0  16 793.614 126.282  15
   7   0  16 857.038 116.775  13
   7   0  17 1367.37 131.981  15
   7   0  17 1501.18 120.312  13
   7   0  18 95.1942 53.1719  15
   7  -1  18 763.218 81.9683  15
   7  -1  17 4752.54 210.759  13
   7  -1  16 3913.94 218.406  13
   7  -1  15 2903.48 191.353   7
   7  -1  15 2673.72 203.696  13
  -7   1  15 2895.30 185.589  11
   7  -1  14 804.960 123.008   7
   7  -1  14 984.511 154.355  13
  -7   1  14 1190.38 137.681  11
   7  -1  13 5387.28 302.664   7
  -7   1  13 5456.19 304.837  11
  -7   1  12 13.1537 97.3194  11
  -7   1  11 691.739 140.709  11
  -7   1  11 486.170 100.399   5
  -7   1  10 2916.69 230.859   5
   7  -1  10 3888.87 281.945   7
  -7   1  10 3654.35 279.862  11
  -7   1   9 683.384 131.427   5
   7  -1   9 785.198 155.266   7
  -7  -1  -8 454.988 196.982  21
  -7  -1  -8 614.776 112.343   5
  -7   1   8 729.504 139.088   5
   7  -1   8 667.246 157.869   7
  -7  -1  -7 3731.73 462.133  21
  -7  -1  -7 5320.31 307.888   5
   7   1  -7 4227.75 437.371  20
  -7   1   7 4404.09 305.397   5
   7  -1   7 4092.71 460.848   1
  -7   1   7 5211.17 347.876  16
   7  -1   7 5247.68 335.568   7
  -7   1   7 4825.34 343.008  11
  -7  -1  -6 1224.51 277.390  21
  -7  -1  -6 1917.37 195.544   5
  -7   1   6 2134.50 222.624   5
  -7   1   6 2044.61 235.229  16
   7  -1   6 2102.04 218.623   7
   7  -1   6 1762.26 313.695   1
  -7   1   6 2307.39 240.441  11
  -7  -1  -5 13580.6 583.111   5
  -7   1   5 14754.9 619.239   5
   7  -1   5 12932.1 844.750   1
  -7   1   5 14843.4 651.524  16
  -7   1   5 13719.9 625.884  11
  -7   1   4 1210.66 185.391  11
  -7  -1  -4 1385.39 182.053   5
   7  -1   4 1227.85 285.624   1
  -7  -1  -3 30201.1 1016.19   5
   7  -1   3 29994.2 1345.12   1
  -7   1   3 29214.6 1057.37  16
  -7  -1  -3 28932.0 957.393  11
  -7   1   3 28861.7 1034.52  11
  -7  -1  -2 22877.5 1187.04  21
  -7  -1  -2 24069.7 847.536   5
  -7   1   2 21361.8 835.327   5
   7  -1   2 21895.6 1117.73   1
  -7   1   2 21248.6 858.756  16
  -7  -1  -2 21726.1 788.103  11
  -7   1   2 22504.0 841.508  11
  -7  -1  -1 7887.91 656.150  21
  -7   1   1 6956.14 634.833  21
  -7  -1  -1 8158.27 435.825   5
  -7   1   1 7961.33 434.481   5
   7  -1   1 7473.18 606.358   1
  -7   1   1 7119.12 437.534  16
  -7  -1  -1 7321.52 394.953  11
  -7   1   1 7551.68 417.674  11
  -7  -1   0 14092.4 894.806  21
  -7   1   0 13506.0 885.645  21
  -7  -1   0 13669.0 606.496   5
  -7   1   0 14157.7 610.398   5
   7  -1   0 11715.9 784.426   1
  -7   1   0 14506.9 645.423  16
  -7  -1   0 13467.1 583.699  11
  -7   1   0 14155.8 594.554  11
   7   1   1 7069.64 612.732   1
  -7   1  -1 8070.60 669.795  21
  -7  -1   1 6947.16 623.194  21
  -7  -1   1 7005.45 411.275   5
   7  -1  -1 7391.25 587.807   1
  -7   1  -1 8186.84 429.765   5
  -7   1  -1 8125.45 449.699  16
  -7  -1   1 8099.04 425.454  11
  -7   1  -1 7371.82 400.002  11
   7   1   2 20725.3 1113.47   1
  -7   1  -2 21354.7 1150.76  21
  -7  -1   2 20087.3 1107.52  21
  -7  -1   2 21859.6 827.395   5
   7  -1  -2 22033.2 1058.68   1
  -7   1  -2 21756.9 814.043   5
  -7   1  -2 21698.8 839.729  16
   7  -1  -2 21325.2 731.771   7
  -7  -1   2 21317.8 819.331  11
  -7   1  -2 21630.0 775.860  11
   7   1   3 32097.3 1420.73   1
  -7   1  -3 28948.1 1381.65  21
  -7  -1   3 27310.3 1345.85  21
   7  -1  -3 27384.3 1236.35   1
  -7   1  -3 30365.3 1018.97   5
  -7   1  -3 29813.9 1044.35  16
  -7  -1   3 30579.8 1044.94  11
  -7   1  -3 29754.7 970.600  11
  -7  -1   4 1380.02 191.605  11
  -7   1  -4 1333.30 300.907  21
  -7   1  -4 1609.05 189.313   5
   7  -1  -4 1111.43 226.351  20
  -7  -1   4 1417.98 189.685   5
   7   1   4 1090.30 276.344   1
  -7   1  -5 13741.9 871.897  21
  -7  -1   5 13170.0 585.905   5
   7  -1  -5 12644.6 775.972  20
   7   1   5 13390.6 858.511   1
  -7   1  -5 13570.7 568.296   5
  -7  -1   5 13916.0 617.205  11
  -7   1  -6 1917.86 339.170  21
  -7  -1   6 2461.13 226.611   5
  -7   1  -6 1914.92 193.428   5
   7  -1  -6 1492.50 287.606  20
  -7  -1   6 2135.59 232.241  11
  -7   1  -7 5254.23 529.048  21
   7  -1  -7 4479.04 463.755  20
  -7  -1   7 4872.77 319.967   5
  -7   1  -7 4859.69 291.005   5
  -7  -1   7 4811.40 339.922  11
  -7  -1   8 731.943 170.600  11
  -7  -1   8 684.427 132.157   5
  -7  -1   9 766.589 137.891   5
  -7  -1  10 3396.76 237.142   5
  -7  -1  10 3383.94 271.089  11
  -7  -1  11 680.600 148.814  11
   7   1  11 764.250 139.342   7
  -7  -1  12 145.879 102.834  11
   7   1  12 74.2655 91.5980   7
   7   1  12 14.8496 116.166  13
   7   1  13 4853.35 287.933   7
   7   1  13 5107.41 318.757  15
  -7  -1  13 5839.77 313.131  11
  -7  -1  14 1091.11 133.404  11
   7   1  14 1176.94 134.465   9
   7   1  14 826.426 135.923  15
   7   1  14 890.320 124.359   7
   7   1  15 2910.82 189.247   7
   7   1  15 3324.17 228.216  15
   7   1  15 3000.93 214.397  13
   7   1  16 4029.89 233.867  15
   7   1  16 4252.47 231.638  13
   7   1  17 5512.84 249.955  15
   7   1  17 4950.59 228.424  13
   7   1  18 788.208 83.4309  15
   7  -2  17 813.570 93.9450  15
   7  -2  16 10286.1 392.209  15
   7  -2  16 9557.75 366.732  13
  -7   2  15 842.383 103.147  11
   7  -2  15 767.532 121.803  15
   7  -2  15 642.286 101.765   7
   7  -2  15 643.336 114.832  13
  -7   2  14 879.162 120.600  11
   7  -2  14 963.387 143.350  15
   7  -2  14 868.025 124.453   7
   7  -2  13 2393.92 197.749   7
  -7   2  13 2273.28 193.124  11
  -7   2  12 2847.19 230.501  11
   7  -2  11 6215.96 344.369   7
  -7   2  11 5829.74 344.937  11
  -7   2  10 4119.52 267.079   5
   7  -2  10 4263.52 293.490   7
  -7   2  10 4426.10 307.751  11
  -7   2   9 8549.43 414.426   5
  -7   2   9 7612.45 415.923  16
   7  -2   9 7874.12 415.359   7
  -7  -2  -8 14989.0 584.188   5
  -7   2   8 15902.8 638.393   5
  -7   2   8 16421.9 674.005  16
   7  -2   8 15904.0 645.947   7
  -7   2   7 1144.90 191.433  11
   7  -2   7 1664.61 297.168   1
  -7  -2  -7 1912.46 188.890   5
  -7   2   7 1848.60 204.285   5
  -7   2   7 1751.74 216.755  16
   7  -2   7 1710.80 206.174   7
  -7  -2  -6 4305.52 491.451  21
  -7  -2  -6 4600.64 293.775   5
  -7   2   6 4194.07 304.983   5
   7  -2   6 3421.03 427.786   1
  -7   2   6 4416.06 326.896  16
   7  -2   6 4436.58 307.039   7
  -7   2   6 4048.38 312.232  11
  -7  -2  -5 3856.30 276.265   5
  -7  -2  -5 2927.31 413.656  21
  -7   2   5 4302.26 301.182   5
   7  -2   5 3041.88 401.771   1
   7  -2   5 3702.62 278.808   7
  -7  -2  -5 2778.06 346.591   3
  -7   2   5 3876.61 299.543  11
  -7  -2  -4 8833.65 702.499  21
  -7  -2  -4 9383.69 462.362   5
   7  -2   4 8770.91 663.809   1
   7  -2   4 9511.31 460.420   7
  -7  -2  -4 8766.69 622.119   3
  -7   2   4 9031.16 480.287  11
  -7  -2  -3 13967.0 896.817  21
  -7  -2  -3 14271.0 610.624   5
  -7   2   3 14897.6 632.748   5
   7  -2   3 13042.6 823.056   1
  -7   2   3 15123.5 666.610  16
   7  -2   3 14926.3 598.996   7
  -7  -2  -3 12674.6 777.630   3
  -7  -2  -3 13619.3 558.188  11
  -7   2   3 14447.3 630.801  11
  -7  -2  -2 11644.2 548.076   5
  -7  -2  -2 12013.2 810.873  21
  -7   2   2 12326.9 567.162   5
   7  -2   2 11458.9 754.318   1
  -7   2   2 11678.7 582.101  16
   7  -2   2 12193.6 524.544   7
  -7  -2  -2 10745.9 705.797   3
  -7  -2  -2 11818.1 512.615  11
  -7   2   2 12133.0 559.169  11
  -7  -2  -1 1594.29 190.134  11
  -7  -2  -1 1904.05 292.925   3
  -7  -2  -1 1884.16 208.715   5
  -7  -2  -1 1663.93 314.954  21
  -7   2   1 2064.80 222.573   5
  -7   2   1 1807.49 224.405  16
   7  -2   1 1831.47 190.521   7
   7  -2   1 1866.52 309.157   1
  -7   2   1 1788.34 212.802  11
  -7  -2   0 31375.1 1096.13   5
  -7  -2   0 30002.7 1415.92  21
  -7   2   0 33622.2 1489.76  21
  -7   2   0 31971.1 1085.45   5
   7  -2   0 32365.5 1351.69   1
  -7   2   0 31916.6 1116.83  16
   7  -2   0 30249.6 1007.76   7
  -7  -2   0 33810.6 1356.71   3
  -7  -2   0 33590.8 1078.65  11
  -7   2   0 31402.7 1069.61  11
  -7  -2   1 1731.29 292.276   3
  -7  -2   1 1903.49 218.228   5
  -7  -2   1 2055.68 332.939  21
  -7   2  -1 1375.70 296.011  21
  -7   2  -1 2075.01 218.033   5
  -7   2  -1 1768.19 221.786  16
   7  -2  -1 1656.19 169.241   7
   7  -2  -1 1822.06 289.955   1
  -7  -2   1 1659.87 200.255  11
  -7   2  -1 1584.23 192.338  11
  -7   2  -2 11575.1 797.575  21
  -7  -2   2 10223.6 754.015  21
  -7   2  -2 12081.6 540.533   5
  -7   2  -2 11305.9 552.659  16
  -7  -2   2 10562.4 699.409   3
  -7  -2   2 12554.9 555.446  11
  -7   2  -2 11698.0 510.892  11
   7   2   3 13348.5 870.274   1
  -7   2  -3 13425.2 873.494  21
  -7  -2   3 13151.9 847.055  21
   7  -2  -3 13583.1 773.749  20
  -7   2  -3 14626.1 600.335   5
  -7   2  -3 14949.0 630.388  16
  -7  -2   3 12256.3 768.368   3
  -7  -2   3 14649.5 623.511  11
  -7   2  -3 13093.4 548.926  11
   7   2   4 8494.87 684.636   1
  -7   2  -4 9503.28 713.331  21
  -7  -2   4 8935.51 459.045   5
   7  -2  -4 7898.83 596.322  20
  -7   2  -4 8698.07 435.756   5
  -7   2  -4 8970.45 461.677  16
  -7  -2   4 8776.54 624.819   3
  -7  -2   4 8566.27 462.535  11
  -7   2  -5 3862.23 451.860  21
  -7  -2   5 3642.55 281.634   5
   7  -2  -5 3517.52 399.392  20
  -7   2  -5 3909.24 271.102   5
  -7   2  -5 3805.93 284.652  16
  -7  -2   5 3909.82 416.488   3
  -7  -2   5 3746.62 305.234  11
  -7   2  -6 4606.17 481.322  21
  -7  -2   6 3679.15 282.704   5
   7  -2  -6 4097.63 447.369  20
  -7   2  -6 4210.73 269.638   5
  -7  -2   6 4446.29 325.013  11
  -7  -2   7 1700.40 208.084  11
  -7   2  -7 1676.37 170.404   5
  -7  -2   7 1411.66 177.779   5
   7   2   7 1755.90 308.827   1
  -7  -2   8 16006.2 639.020   5
  -7  -2   8 16965.2 694.305  11
  -7  -2   9 7980.00 390.205   5
   7   2   9 8330.74 448.325  13
   7   2   9 7391.65 350.283   6
  -7  -2  10 3679.22 245.927   5
   7   2  10 4411.14 321.832  13
  -7  -2  10 4115.78 300.097  11
   7   2  10 3534.67 226.994   6
   7   2  11 5109.55 273.676   6
   7   2  11 5561.61 350.761  13
  -7  -2  11 5756.10 341.089  11
   7   2  12 2528.91 209.256   7
   7   2  12 2909.08 235.127  15
   7   2  12 2483.13 228.599  13
  -7  -2  12 2563.78 218.435  11
   7   2  13 2321.99 190.760   9
   7   2  13 2174.41 185.513   7
   7   2  13 2216.07 200.413  15
   7   2  13 2269.39 216.632  13
  -7  -2  13 2295.36 195.176  11
   7   2  14 876.601 119.266   9
   7   2  14 936.064 142.087  15
   7   2  14 890.125 114.285   7
   7   2  15 690.603 116.209  15
   7   2  15 727.613 120.595  13
   7   2  16 9776.01 376.123  15
   7   2  16 10230.0 383.523  13
   7   2  16 9131.87 343.489  12
   7   2  17 883.325 96.4669  15
   7   2  17 890.302 93.1916  13
   7  -3  16 2538.21 154.157  15
   7  -3  16 2245.02 140.560  13
   7  -3  15 5113.57 256.238  15
   7  -3  15 5016.19 251.756  13
  -7   3  14 762.858 111.172  11
   7  -3  14 764.322 128.474  15
   7  -3  14 709.260 112.937   7
  -7   3  13 560.244 113.727  11
   7  -3  13 727.659 131.609  15
  -7   3  12 2257.80 203.558  11
   7  -3  11 2339.79 210.262   7
  -7   3  11 2298.81 212.101  11
  -7   3  10 5758.05 337.991  16
   7  -3  10 6379.49 351.451   7
  -7   3  10 6437.17 365.975  11
  -7   3   9 1726.73 198.179  16
   7  -3   9 1975.95 199.885   7
  -7  -3  -8 320.029 98.5719   5
  -7   3   8 277.951 113.554   5
  -7   3   8 252.520 116.947  16
   7  -3   8 198.336 103.983   7
  -7   3   7 493.167 148.294  11
  -7  -3  -7 811.591 134.221   5
  -7   3   7 600.066 134.797   5
  -7   3   7 716.980 156.231  16
   7  -3   7 516.284 140.226   7
  -7  -3  -6 23355.2 826.673   5
  -7   3   6 24017.9 858.624   5
  -7   3   6 22760.3 881.018  16
   7  -3   6 22968.3 838.799   7
  -7  -3  -5 15658.6 959.905  21
   7  -3   5 17569.6 674.748   7
   7  -3   5 17915.5 958.242   1
  -7  -3  -5 15924.0 892.477   3
  -7  -3  -4 14087.6 896.194  21
   7  -3   4 13826.7 839.379   1
   7  -3   4 15543.1 616.597   7
  -7  -3  -4 15747.8 874.477   3
  -7  -3  -3 5883.25 555.288  21
  -7   3   3 5920.16 365.111   5
  -7   3   3 5602.50 377.645  16
   7  -3   3 5333.05 492.803   1
   7  -3   3 5527.84 329.100   7
  -7  -3  -3 4749.52 480.799   3
  -7  -3  -2 891.856 144.462  11
  -7  -3  -2 1008.86 237.519   3
   7  -3   2 961.264 221.158   1
  -7  -3  -2 1019.20 251.464  21
  -7   3   2 1082.31 175.333   5
  -7   3   2 963.153 187.876  16
   7  -3   2 945.579 148.715   7
  -7  -3  -1 13.9960 103.553  11
  -7  -3  -1 34.8362 114.131   3
   7  -3   1-127.571 136.234   1
  -7  -3  -1 77.1617 126.399  21
  -7   3   1 63.4390 94.3906   5
  -7   3   1 144.297 123.955  16
   7  -3   1 168.484 94.9555   7
  -7  -3   0 29.4279 103.403  11
  -7  -3   0 34.9268 114.439   3
  -7  -3   0 75.7207 130.102  21
  -7   3   0 15.6793 107.764   5
  -7   3   0 88.8808 122.172  16
   7  -3   0 155.742 81.5127   7
  -7  -3   1-30.5739 98.9051  11
  -7  -3   1-70.0392 114.730   3
  -7  -3   1-73.9879 162.604  21
  -7   3  -1 92.2431 106.845   5
  -7   3  -1 87.1073 122.413  16
   7   3   1 12.7295 85.4681  13
  -7  -3   2 897.387 167.733  11
  -7  -3   2 1230.22 255.819   3
  -7  -3   2 720.277 215.420  21
  -7   3  -2 873.836 244.404  21
   7  -3  -2 844.224 201.175  20
  -7   3  -2 945.108 161.465   5
  -7   3  -2 948.724 172.430  16
   7   3   2 768.179 147.217  13
  -7   3  -3 5232.80 526.407  21
   7  -3  -3 5297.11 474.079  20
  -7   3  -3 6162.03 355.134   5
  -7   3  -3 5566.34 360.997  16
   7   3   3 5315.90 337.602  13
  -7  -3   3 5579.47 508.957   3
  -7  -3   3 5378.71 348.546  11
  -7   3  -3 5705.81 321.078  11
  -7  -3   4 15212.9 627.604   5
  -7   3  -4 13658.7 867.192  21
   7  -3  -4 14700.5 834.737  20
  -7   3  -4 14380.5 594.537   5
  -7   3  -4 14882.4 627.525  16
   7   3   4 15324.4 626.879  13
   7   3   4 14019.0 548.767   6
  -7  -3   4 14250.8 852.055   3
  -7  -3   4 15257.6 646.457  11
   7   3   5 17778.4 1004.07   1
  -7  -3   5 17772.8 696.933   5
  -7   3  -5 15847.4 929.029  21
  -7   3  -5 17152.3 655.082   5
  -7   3  -5 17410.6 681.432  16
   7   3   5 16502.0 685.336  13
   7   3   5 16809.4 621.280   6
  -7  -3   5 17480.8 940.083   3
  -7  -3   5 18261.2 725.989  11
  -7  -3   6 25032.4 854.445   5
  -7   3  -6 22464.0 789.881   5
  -7   3  -6 22449.9 811.570  16
   7   3   6 23850.8 862.306  13
   7   3   6 22567.0 776.036   6
  -7  -3   6 23862.1 878.190  11
  -7  -3   7 749.675 169.570  11
   7   3   7 577.852 112.718   6
  -7  -3   7 830.322 142.074   5
   7   3   7 476.685 146.231  13
  -7  -3   8 207.048 115.639  11
   7   3   8 208.610 90.4600   6
  -7  -3   8 258.651 102.193   5
   7   3   8 252.399 114.539  13
  -7  -3   9 1853.77 178.844   5
   7   3   9 1853.29 217.747  13
   7   3   9 1632.51 161.745   6
  -7  -3  10 6049.74 309.480   5
   7   3  10 6599.47 350.408  15
   7   3  10 6046.26 365.175  13
  -7  -3  10 6585.24 373.752  11
   7   3  10 5683.49 302.735   6
   7   3  11 2362.15 212.455   9
   7   3  11 2573.03 214.856  15
   7   3  11 2243.89 218.839  13
  -7  -3  11 2304.75 218.777  11
   7   3  11 2190.58 176.353   6
   7   3  12 2340.34 173.837   6
   7   3  12 1952.69 186.367   9
   7   3  12 2024.38 185.550  15
   7   3  12 2220.24 216.024  13
   7   3  13 840.291 127.700   9
   7   3  13 723.616 125.962  15
   7   3  13 778.796 113.796   7
   7   3  13 781.390 135.708  13
   7   3  14 698.250 105.964   9
   7   3  14 691.220 108.087  15
   7   3  14 748.821 100.867   7
   7   3  15 5113.18 229.897   9
   7   3  15 5757.80 257.358  15
   7   3  16 2693.73 153.348  15
   7   3  16 2805.12 171.378  13
   7   3  16 2485.11 151.894  12
   7   3  17 1080.59 94.6258  13
   7  -4  15 914.077 92.9932  15
   7  -4  15 1014.22 102.351  13
  -7   4  14 200.021 65.2201  11
   7  -4  14 109.645 70.7456  15
   7  -4  14 169.826 75.0409   7
   7  -4  13 2128.84 176.434  15
  -7   4  13 2144.11 168.212  11
   7  -4  12 5629.14 300.810   7
  -7   4  12 5934.91 308.627  11
  -7   4  11 2934.18 215.732  16
   7  -4  11 3168.86 231.934   7
  -7   4  11 2942.13 229.541  11
  -7   4  10 1435.54 170.823  16
   7  -4  10 1633.01 181.052   7
  -7   4  10 1806.98 187.823  11
  -7   4   9 1307.12 171.935  16
   7  -4   9 1428.48 174.485   7
  -7  -4  -8 2722.24 207.771   5
  -7   4   8 2757.77 241.318  16
   7  -4   8 2986.74 242.096   7
  -7   4   7 4485.35 319.410  16
   7  -4   7 4135.96 282.355   7
  -7   4   6 2390.63 241.417  16
   7  -4   6 2564.43 221.029   7
   7  -4   5 4587.53 293.984   7
   7  -4   4 6608.60 356.691   7
   7   4  -3 14515.3 564.845   9
  -7   4   3 15760.9 645.883   5
  -7   4   3 14861.3 662.129  16
   7  -4   3 15079.0 590.996   7
   7   4  -2 5298.29 312.514   9
  -7   4   2 5282.19 345.222   5
  -7   4   2 5580.03 379.500  16
   7  -4   2 5775.58 317.900   7
  -7  -4  -2 5856.94 526.963   3
  -7  -4  -1 1483.98 285.581   3
  -7   4   1 1606.59 198.929   5
  -7   4   1 1541.25 207.792  16
   7  -4   1 1505.95 160.483   7
  -7   4   0 6528.42 378.052   5
  -7   4   0 6130.56 386.960  16
  -7  -4   0 5690.72 525.638   3
   7   4   0 5562.26 309.091   6
  -7  -4   1 1737.82 302.102   3
  -7   4  -1 1554.61 185.909   5
  -7   4  -1 1417.77 197.787  16
   7   4   1 1303.20 145.407   6
  -7   4  -2 6353.76 361.232   5
  -7   4  -2 6204.16 376.871  16
   7   4   2 5446.20 315.972  13
   7   4   2 5873.65 321.124   6
  -7  -4   2 5001.02 491.040   3
  -7  -4   2 5483.83 353.553  11
  -7   4  -3 16300.6 634.768   5
  -7   4  -3 15257.9 644.036  16
   7   4   3 15394.0 605.819  13
   7   4   3 14952.5 581.459   6
  -7  -4   3 14855.6 640.084  11
  -7   4  -4 7058.95 389.182  16
   7   4   4 6942.14 371.585  13
   7   4   4 6293.84 335.207   6
  -7  -4   4 6825.47 398.156  11
  -7   4  -4 6075.45 323.808  11
  -7  -4   5 4278.47 294.438   5
  -7   4  -5 4321.43 291.416  16
   7   4   5 4212.60 290.485  13
   7   4   5 3846.10 258.378   6
  -7  -4   5 4342.37 312.925  11
  -7  -4   6 2255.85 212.804   5
  -7   4  -6 2331.28 204.870  16
   7   4   6 1950.68 213.433  13
   7   4   6 2142.46 194.205   6
  -7  -4   6 2475.29 238.144  11
  -7  -4   7 4299.80 278.362   5
  -7   4  -7 3969.39 251.825  16
   7   4   7 4282.42 297.073  13
  -7  -4   7 4320.61 308.312  11
   7   4   7 3741.93 249.215   6
  -7  -4   8 2762.14 217.190   5
   7   4   8 3041.59 255.050   9
   7   4   8 2526.74 204.867  15
   7   4   8 2764.65 240.333  13
   7   4   8 2575.81 206.367   6
  -7  -4   9 1106.09 135.287   5
   7   4   9 1336.19 152.965  15
   7   4   9 1379.39 180.014  13
   7   4   9 1284.48 150.251   6
   7   4  10 1183.65 141.801  15
   7   4  10 1480.38 151.361   6
   7   4  11 3143.26 231.375   9
   7   4  11 3143.90 206.315  15
   7   4  11 3218.93 244.225  13
   7   4  11 3127.68 207.570   6
   7   4  12 6190.78 313.558   9
   7   4  12 5343.56 269.870  15
   7   4  12 6027.52 321.614  13
   7   4  12 5832.83 283.183   6
   7   4  13 2305.61 161.271   6
   7   4  13 1995.10 164.630   9
   7   4  13 2367.45 170.901   7
   7   4  13 1970.93 149.989  15
   7   4  13 1967.16 177.967  13
   7   4  14 273.730 74.3278   9
   7   4  14 115.062 58.3145  15
   7   4  14 332.824 90.9734  13
   7   4  14 213.567 77.8265  12
   7   4  15 862.835 83.8411   9
   7   4  15 861.858 79.2846  15
   7   4  15 870.624 106.066  12
   7   4  16 916.221 86.6806  12
  -7   5  14 202.522 54.3834  11
   7  -5  13 4312.43 232.306   7
  -7   5  13 4489.96 223.959  11
   7  -5  12 2782.07 191.812   7
  -7   5  12 2595.44 185.558  11
  -7   5  11 2088.53 170.002  16
   7  -5  11 2159.05 180.519   7
  -7   5  11 2533.92 197.156  11
  -7   5  10 7426.00 355.459  16
   7  -5  10 7189.11 351.808   7
  -7   5  10 7262.25 363.852  11
  -7   5   9 272.908 106.199  16
   7  -5   9 287.267 97.6833   7
  -7   5   8 1588.08 184.699  16
   7  -5   8 1406.83 170.557   7
  -7   5   7 3879.20 287.665  16
   7  -5   7 3695.31 253.614   7
  -7   5   6 5393.96 343.208  16
   7  -5   6 4626.28 287.719   7
   7  -5   5 11403.9 487.317   7
  -7   5   4 2565.36 255.164  16
   7  -5   4 2631.84 208.835   7
  -7   5   3 2486.47 252.194  16
   7  -5   3 2339.57 197.460   7
   7   5  -3 2389.71 195.690   6
   7   5  -2 970.201 132.474   6
   7   5  -2 941.259 135.026   9
  -7   5   2 764.999 170.298  16
   7  -5   2 813.185 124.689   7
   7   5  -1 3606.76 252.600   9
  -7   5   1 4246.90 316.600  16
   7   5  -1 3761.35 250.830   6
   7   5   0 129.318 90.3500   6
   7   5   0 52.1024 91.5492   9
  -7   5   0 66.7102 113.320  16
   7   5   1 3669.72 268.309   9
  -7   5  -1 3936.63 301.667  16
   7   5   1 3523.66 246.469   6
   7   5   2 637.867 124.498   6
   7   5   2 913.583 158.162   9
  -7   5  -2 1160.85 176.234  16
   7   5   3 2761.20 234.733   9
  -7   5  -3 2475.30 231.495  16
   7   5   3 2422.85 200.456  13
   7   5   3 2136.81 193.251   6
   7   5   4 2780.25 241.192   9
  -7   5  -4 2742.96 238.137  16
   7   5   4 2706.36 218.480  13
   7   5   4 2522.96 209.999   6
   7   5   5 11094.9 516.857   9
  -7   5  -5 12190.0 507.481  16
   7   5   5 11515.4 492.112  13
   7   5   5 11643.1 486.686   6
  -7  -5   6 5208.99 306.814   5
   7   5   6 5182.58 327.880   9
  -7   5  -6 4877.70 284.758  16
   7   5   6 5258.89 306.442  13
   7   5   6 4288.09 273.955   6
  -7  -5   7 4044.59 257.043   5
   7   5   7 3587.89 273.643   9
   7   5   7 4015.57 267.094  13
   7   5   7 3394.49 237.109   6
   7   5   8 1180.44 141.726   6
  -7  -5   8 1478.41 153.578   5
   7   5   8 1592.75 187.221   9
   7   5   8 1577.79 176.667  13
   7   5   9 195.510 81.3002   6
   7   5   9 143.391 97.5699  13
   7   5  10 7230.54 354.754  13
   7   5  10 6710.65 322.442   6
   7   5  11 2357.94 189.713   9
   7   5  11 2253.05 190.917  13
   7   5  11 2140.00 168.336   6
   7   5  12 2805.12 191.620   9
   7   5  12 2664.06 197.517  13
   7   5  12 2356.97 166.880   6
   7   5  13 4217.97 222.214   9
   7   5  13 4486.33 243.172  13
   7   5  14 106.153 53.7432   9
   7   5  14 101.764 69.8863  13
   7   5  14 119.862 70.1137  12
   7   5  15 425.916 75.0994  13
   7   5  15 369.442 69.0664  12
  -7   6  13 1246.09 99.8239  11
  -7   6  12 867.966 102.108  11
  -7   6  11 692.194 106.001  11
  -7   6  11 655.653 93.8669  16
   7  -6  11 805.316 113.799   7
  -7   6  10 1222.35 134.235  16
   7  -6  10 1198.05 132.163   7
  -7   6  10 1146.20 138.493  11
  -7   6   9 210.333 88.0075  16
   7  -6   9 232.528 90.4994   7
  -7   6   8 450.586 115.784  16
   7  -6   8 465.869 102.343   7
  -7   6   7 2658.40 223.916  16
   7  -6   7 2397.96 195.496   7
  -7   6   6 207.972 113.168  16
   7  -6   6 135.778 75.8421   7
   7  -6   5 2084.02 181.603   7
   7   6  -4 772.263 113.339   6
  -7   6   4 813.877 161.760  16
   7  -6   4 659.655 112.957   7
   7   6  -3 263.997 85.6105   6
  -7   6   3 154.033 111.832  16
   7  -6   3 208.371 79.2890   7
   7   6  -2 9970.66 410.266   9
  -7   6   2 10752.2 506.923  16
   7   6  -2 10572.5 444.623   6
   7   6  -1 8157.96 370.968   9
  -7   6   1 8332.64 437.992  16
   7   6  -1 8102.90 383.569   6
   7   6   0 29259.3 934.977   9
  -7   6   0 30130.7 1014.22  16
   7   6   0 28437.0 936.119   6
   7   6   1 8603.18 397.917   9
  -7   6  -1 8089.46 424.101  16
   7   6   1 7929.69 384.877   6
   7   6   2 11531.4 490.698   9
  -7   6  -2 11280.3 512.549  16
   7   6   2 11288.4 477.048   6
   7   6   3 243.326 94.0317   6
   7   6   3 377.345 117.501   9
  -7   6  -3 293.740 114.294  16
   7   6   4 1035.60 137.252   6
   7   6   4 772.090 139.914   9
  -7   6  -4 1029.92 146.510  16
   7   6   4 827.295 116.473  13
   7   6   5 1986.25 196.601   9
  -7   6  -5 1721.31 173.808  16
   7   6   5 1977.24 171.753  13
   7   6   5 1989.02 179.630   6
   7   6   6 129.410 79.1442   6
   7   6   6 307.541 105.971   9
  -7  -6   6 122.496 75.8019   5
  -7   6  -6 174.126 76.1044  16
   7   6   6 364.535 101.279  13
  -7  -6   7 2376.43 187.474   5
   7   6   7 2460.78 208.479   9
   7   6   7 2646.83 197.238  13
   7   6   7 2142.70 185.352   6
   7   6   8 481.373 97.0781   6
   7   6   8 440.502 115.094   9
  -7  -6   8 390.200 84.3943   5
   7   6   8 350.631 98.9757  13
   7   6   9 202.042 74.4945   6
   7   6   9 179.008 90.1109   9
   7   6   9 270.583 92.4517  13
   7   6  10 1139.97 133.781  13
   7   6  10 1080.90 140.181  12
   7   6  10 1151.25 124.040   6
   7   6  11 922.703 116.547   9
   7   6  11 713.455 109.885  13
   7   6  11 683.287 115.993  12
   7   6  12 835.260 103.988   9
   7   6  12 591.021 99.0071  13
   7   6  12 754.763 106.103  12
   7   6  13 1439.88 120.947  13
   7   6  13 1355.23 121.493  12
  -7   7  11 1524.13 118.832  11
  -7   7  10 7873.45 311.171  16
  -7   7  10 8101.62 326.693  11
  -7   7   9 453.692 94.4930  16
  -7   7   8 720.201 115.027  16
   7  -7   8 732.576 100.858   7
  -7   7   7 616.046 119.439  16
   7  -7   7 308.743 83.0675   7
  -7   7   6 2425.02 203.759  16
   7  -7   6 2059.04 163.071   7
   7   7  -5 377.034 84.1830   6
   7  -7   5 353.212 83.6428   7
  -7   7   4 1500.34 181.455  16
   7   7  -4 1336.42 135.638   6
  -7   7   3 1740.68 190.208  16
   7   7  -3 1613.89 155.443   6
  -7   7   2 5766.75 331.002  16
   7   7  -2 5108.10 281.091   6
   7   7  -1 892.142 123.240   6
   7   7  -1 884.532 105.800   9
  -7   7   1 625.828 135.245  16
   7   7   0 3616.00 219.019   9
  -7   7   0 4091.22 274.673  16
   7   7   0 3521.09 233.551   6
   7   7   1 599.454 110.927   6
   7   7   1 784.761 119.886   9
  -7   7  -1 858.808 142.036  16
   7   7   2 5945.85 302.772   9
  -7   7  -2 5743.71 319.972  16
   7   7   2 5931.85 306.935   6
   7   7   3 1634.95 161.986   9
  -7   7  -3 1814.84 175.146  16
   7   7   3 1651.74 160.920   6
   7   7   3 1774.15 150.456  12
   7   7   4 1241.27 144.907   9
  -7   7  -4 1017.78 128.919  16
   7   7   4 1146.46 139.131   6
   7   7   4 1235.94 133.045  12
   7   7   5 399.078 93.4085   6
   7   7   5 330.782 103.670   9
  -7   7  -5 325.985 84.4418  16
   7   7   5 432.178 99.1297  12
  -7  -7   6 2109.28 169.822   5
   7   7   6 2720.23 202.550   9
   7   7   6 2420.93 180.995  12
   7   7   6 2329.58 179.246   6
   7   7   7 546.833 95.3056   6
   7   7   7 636.049 112.736   9
   7   7   7 363.680 93.1601  12
   7   7   8 772.412 104.031   6
   7   7   8 886.058 117.892   9
  -7  -7   8 745.966 104.021  18
   7   7   8 842.074 114.888  12
   7   7   9 422.669 91.8666   9
   7   7   9 432.695 95.5862  12
   7   7  10 7845.18 323.138  12
   7   7  11 1344.92 118.144  12
   7   7  12 2363.53 141.610  12
  -7   8  10 270.077 53.1486  11
  -7   8   9 1753.62 119.722  16
  -7   8   9 1787.20 124.631  11
  -7   8   8 72.1786 57.7098  16
  -7   8   7 1317.18 130.934  16
  -7  -8  -6 6996.82 283.381  18
  -7   8   6 7545.03 326.869  16
  -7  -8  -5 603.810 92.4105  18
  -7   8   4 7458.98 346.535  16
  -7   8   3 682.496 121.406  16
  -7   8   2 2278.64 187.019  16
   7   8  -2 2230.39 165.363   6
  -7   8   1 2489.71 192.489  16
   7   8  -1 1800.59 153.271   6
   7   8   0 343.101 84.7922   6
  -7   8   0 418.593 105.634  16
  -7   8  -1 2006.16 171.417  16
   7   8   1 1932.99 159.243   6
  -7   8  -2 2238.37 173.803  16
   7   8   2 2011.65 160.221   6
   7   8   3 699.084 102.429   6
  -7   8  -3 561.682 93.4483  16
  -7  -8   4 7495.52 332.990  18
  -7   8  -4 6598.96 280.713  16
   7   8   4 6589.77 300.578   6
  -7  -8   5 454.405 96.6946  18
   7   8   5 351.703 67.8160  12
  -7  -8   6 7633.01 313.392  18
   7   8   6 6586.61 268.703  12
  -7  -8   7 1046.90 105.767  18
   7   8   7 927.535 93.5502  12
  -7  -8   8 102.941 48.2448  18
   7   8   8 104.290 52.1593  12
   7   8   9 1573.52 109.574  12
  -7   9   6 136.443 55.2778  16
  -7  -9  -4 1478.99 105.042  18
  -7   9   4 1559.79 126.820  16
  -7  -9  -3 12372.7 415.494  18
  -7   9   3 12432.0 434.876  16
  -7  -9  -2 58.0136 58.6023  18
  -7   9   2-7.09242 59.6964  16
  -7  -9  -1 4019.03 204.229  18
  -7   9   1 3378.76 193.919  16
  -7  -9   0 912.159 108.607  18
  -7   9   0 824.349 98.2498  16
  -7  -9   1 3667.95 200.059  18
  -7   9  -1 3395.24 182.013  16
  -7  -9   2 28.5066 62.6628  18
  -7   9  -2 73.1823 52.5217  16
  -7  -9   4 1691.21 128.567  18
  -7  -9   5 2629.04 149.882  18
  -7  -9   6 82.4586 43.6389  18
  -8   0   0 56324.3 1657.01   5
   8   0   0 54367.5 1577.23   7
  -8   0   0 56172.6 1616.52  11
  -8   0  -1 33274.9 1085.32   5
  -8   0   1 35095.0 1100.50   5
   8   0   1 32190.4 1033.62   7
  -8   0  -1 31540.5 1028.07  11
  -8   0   1 33727.8 1069.20  11
  -8   0  -2 3069.66 246.759   5
  -8   0   2 2588.95 231.737   5
   8   0   2 2858.29 223.762   7
  -8   0  -2 2785.14 210.500  11
  -8   0   2 3207.88 251.111  11
  -8   0  -3 15867.1 615.497   5
   8   0   3 15414.7 603.715   7
  -8   0   3 15493.6 628.650  11
  -8   0   4 535.422 141.423  11
  -8   0  -4 484.004 115.079   5
   8   0   4 658.453 127.909   7
  -8   0  -5 15484.4 586.431   5
  -8   0   5 15152.6 613.448   5
   8   0   5 15748.6 608.227   7
  -8   0   5 15208.2 626.915  11
  -8   0   6 125.191 105.924  11
  -8   0  -6 82.7062 68.6195   5
  -8   0   6 63.3537 85.1038   5
   8   0   6 125.399 90.0370   7
  -8   0   7 1424.89 160.952   5
   8   0   7 1748.02 184.658   7
  -8   0   7 1719.02 189.616  11
  -8   0   8 4763.15 277.625   5
   8   0   8 4671.41 284.692   7
  -8   0   8 5014.00 302.960  11
  -8   0   9 2048.29 172.589   5
   8   0   9 2128.02 188.206   7
  -8   0  10 1199.90 123.103   5
   8   0  10 1108.04 140.356   7
   8   0  10 1248.32 163.048  13
  -8   0  11 1169.60 140.440  11
   8   0  11 890.871 138.935  13
  -8   0  12 300.462 89.0394  11
   8   0  12 465.227 104.850  15
   8   0  12 493.286 109.441  13
  -8   0  13 89.9767 63.3826  11
   8   0  13 103.303 56.1530   9
   8   0  13 140.141 76.5654  15
   8   0  14 113.286 62.2614  15
   8   0  15 888.303 83.5468  15
   8   0  15 940.228 82.4479  13
   8  -1  14 164.747 64.6223  13
  -8   1  14 195.932 53.3874  11
   8  -1  13 1248.08 102.710   9
   8  -1  13 1421.08 141.583  15
  -8   1  13 1471.26 124.914  11
   8  -1  12 2686.60 192.850  15
  -8   1  12 2449.86 176.352  11
  -8   1  11 78.0464 85.1683  11
   8  -1  11 9.09676 69.8980   7
   8  -1  10 1863.27 170.606   7
  -8   1   9 935.760 126.170   5
   8  -1   9 961.983 134.038   7
  -8   1   8 4286.85 259.253   5
   8  -1   8 4084.74 261.450   7
  -8   1   8 4095.99 277.120  11
  -8  -1  -7 1980.32 164.506   5
  -8   1   7 2156.55 194.665   5
   8  -1   7 1966.16 190.963   7
  -8   1   7 2090.33 203.490  11
  -8  -1  -6 9562.69 411.879   5
  -8   1   6 9805.15 442.992   5
   8  -1   6 9376.70 431.375   7
  -8   1   6 8967.60 448.173  11
  -8  -1  -5 7396.09 354.659   5
  -8   1   5 7017.03 369.791   5
   8  -1   5 6177.69 342.068   7
  -8   1   5 6287.21 362.529  11
  -8   1   4 448.899 132.761  11
  -8  -1  -4 374.558 103.126   5
   8  -1   4 389.842 111.177   7
  -8  -1  -3 9535.84 450.168   5
  -8   1   3 9723.99 467.287   5
   8  -1   3 9876.66 440.762   7
  -8   1   3 10269.1 469.752  11
  -8  -1  -2 12220.4 518.843   5
  -8   1   2 11692.4 518.313   5
   8  -1   2 11328.4 476.643   7
  -8  -1  -2 10490.9 448.829  11
  -8   1   2 11942.7 517.261  11
  -8  -1  -1 2711.07 230.344   5
  -8   1   1 2727.03 238.215   5
   8  -1   1 2401.37 200.171   7
  -8  -1  -1 2758.26 211.490  11
  -8   1   1 3018.64 234.381  11
  -8  -1   0 43941.4 1351.35   5
  -8   1   0 45270.6 1356.01   5
   8  -1   0 40372.2 1254.10   7
  -8  -1   0 44488.3 1314.98  11
  -8   1   0 44717.4 1320.09  11
  -8  -1   1 3248.51 257.697   5
  -8   1  -1 3275.36 254.116   5
  -8  -1   1 3057.23 237.245  11
  -8   1  -1 2908.46 222.784  11
  -8  -1   2 12632.8 536.793   5
  -8   1  -2 12125.5 518.746   5
  -8  -1   2 11552.3 512.052  11
  -8   1  -2 11272.4 467.797  11
  -8   1  -3 9642.45 447.641   5
  -8  -1   3 9974.56 467.654  11
  -8  -1   4 430.607 131.503  11
  -8   1  -4 410.783 100.655   5
  -8  -1   5 6584.23 355.338   5
  -8   1  -5 6120.60 321.869   5
  -8  -1   5 5973.40 353.491  11
  -8  -1   6 9075.11 426.957   5
  -8   1  -6 9254.57 398.290   5
  -8  -1   6 9750.44 460.608  11
  -8  -1   7 1914.91 182.361   5
   8   1   7 2184.98 196.486   7
   8   1   7 2087.53 207.319  13
  -8  -1   7 1963.71 202.391  11
  -8  -1   8 4088.50 252.652   5
   8   1   8 4184.07 264.834   7
   8   1   8 4334.31 283.848  13
  -8  -1   8 4479.54 282.034  11
  -8  -1   9 998.781 120.599   5
   8   1   9 1018.86 137.887   7
   8   1   9 960.481 153.610  13
   8   1  10 1706.77 162.076   7
   8   1  10 1716.64 180.009  13
  -8  -1  11-9.86408 74.3987  11
   8   1  11 19.2480 82.2204  15
   8   1  11 41.3804 87.7287  13
   8   1  12 2348.69 165.530   9
   8   1  12 2556.72 173.441   7
   8   1  12 2417.79 176.543  15
   8   1  12 2401.76 185.703  13
  -8  -1  12 1996.17 162.829  11
   8   1  13 1422.92 113.839   9
   8   1  13 1328.43 127.499  15
   8   1  13 1394.73 133.548  13
   8   1  14 259.895 65.2263  15
   8   1  15 1122.45 87.2188  13
   8  -2  14 3618.17 183.599  15
   8  -2  14 4229.82 191.819  13
   8  -2  13 1178.36 120.161  15
   8  -2  13 1128.76 118.421  13
  -8   2  13 1202.97 108.873  11
  -8   2  12 377.659 86.4931  11
   8  -2  11 10413.6 413.889   7
  -8   2  11 11201.7 434.025  11
   8  -2  10 199.722 83.7483   7
   8  -2   9 7031.28 338.230   7
   8  -2   8 3572.00 239.105   7
  -8   2   8 3770.89 257.169  11
  -8   2   7 362.046 113.072  11
  -8  -2  -7 233.951 74.2921   5
  -8   2   7 230.131 87.8540   5
   8  -2   7 336.488 102.843   7
  -8   2   6 481.887 128.334  11
  -8  -2  -6 559.755 105.257   5
  -8   2   6 307.530 101.759   5
   8  -2   6 491.921 118.446   7
  -8   2   5 409.229 119.494  11
  -8  -2  -5 469.765 106.635   5
   8  -2   5 344.201 104.776   7
  -8  -2  -4 5020.75 300.077   5
   8  -2   4 4909.90 288.664   7
  -8   2   4 5483.43 324.847  11
  -8  -2  -3 6798.31 359.148   5
  -8   2   3 6823.13 371.040   5
   8  -2   3 6586.11 334.829   7
  -8   2   3 6389.26 363.948  11
  -8  -2  -2 2521.21 218.874   5
  -8   2   2 2551.90 224.488   5
   8  -2   2 2254.42 187.060   7
  -8   2   2 2327.46 214.359  11
  -8  -2  -1 5443.03 325.508   5
  -8   2   1 5501.66 328.101   5
   8  -2   1 4525.06 261.744   7
  -8  -2  -1 4784.52 281.485  11
  -8   2   1 4887.08 303.224  11
  -8  -2   0 1049.82 151.917  11
  -8   2   0 1337.55 167.726  11
  -8  -2   0 1062.99 154.871   5
  -8   2   0 873.121 147.827   5
  -8  -2   1 4621.71 308.179   5
  -8   2  -1 5634.69 324.787   5
  -8  -2   1 4842.21 299.497  11
  -8   2  -1 5022.90 287.276  11
  -8  -2   2 2181.19 208.615   5
  -8   2  -2 2181.73 201.712   5
   8   2   2 2477.00 193.700  13
  -8  -2   2 2309.24 208.343  11
  -8   2  -2 2267.91 184.650  11
  -8   2  -3 6379.14 341.472   5
   8   2   3 6297.15 330.896  13
  -8  -2   3 6436.29 356.177  11
  -8  -2   4 5258.68 311.632   5
  -8   2  -4 5004.89 289.519   5
   8   2   4 5155.22 300.570  13
  -8  -2   4 5194.14 318.897  11
  -8  -2   5 363.002 123.452  11
  -8  -2   5 417.239 110.860   5
  -8   2  -5 543.713 103.289   5
   8   2   5 341.536 111.374  13
  -8  -2   6 371.133 125.516  11
  -8  -2   6 536.778 117.025   5
  -8   2  -6 302.162 87.0162   5
   8   2   6 564.790 125.689  13
  -8  -2   7 360.762 115.776  11
  -8  -2   7 264.311 92.9102   5
   8   2   7 181.849 100.681  13
  -8  -2   8 3341.33 221.432   5
   8   2   8 3445.27 243.031  13
  -8  -2   8 3372.74 242.625  11
   8   2   9 7201.54 346.606   7
   8   2   9 7299.51 357.123  13
  -8  -2   9 7981.14 373.318  11
   8   2  10 139.838 83.4910   9
   8   2  10 147.042 81.9659  15
   8   2  10 104.402 85.9106  13
   8   2  11 11134.1 425.487   9
   8   2  11 10816.6 419.440   7
   8   2  11 10866.3 413.403  15
   8   2  11 10157.3 427.461  13
   8   2  12 309.438 80.9509   9
   8   2  12 281.016 78.3710  15
   8   2  12 275.494 88.0608  13
   8   2  13 999.705 95.2448   9
   8   2  13 1090.22 104.342  15
   8   2  13 939.404 106.878  13
   8   2  14 3764.54 181.359  13
   8   2  14 3446.75 164.540  12
   8  -3  13 6660.98 265.161  15
   8  -3  13 6980.43 276.935  13
  -8   3  13 6907.04 258.204  11
  -8   3  12 669.500 92.4187  11
   8  -3  12 538.152 93.8956  15
  -8   3  11 1622.30 143.751  11
   8  -3  10 706.424 107.004   7
   8  -3   9 12019.8 464.179   7
  -8   3   8 273.931 102.525  11
   8  -3   8 158.025 82.0076   7
  -8   3   7 532.688 120.939  11
  -8  -3  -7 761.969 105.304   5
   8  -3   7 861.086 125.100   7
  -8  -3  -6 12621.1 489.619   5
  -8   3   6 13070.3 545.596  16
   8  -3   6 12620.7 499.813   7
  -8   3   6 13178.0 538.923  11
  -8  -3  -5 1978.89 179.701   5
   8  -3   5 2085.91 183.096   7
  -8   3   5 2222.20 209.692  11
  -8  -3  -4 16850.7 618.099   5
  -8   3   4 17336.2 645.569  11
  -8  -3  -3 9819.25 451.178   5
  -8   3   3 10279.5 463.953   5
  -8   3   3 10911.0 503.061  16
   8  -3   3 9968.33 416.103   7
  -8   3   3 9642.08 452.694  11
  -8  -3  -2 1514.91 176.220   5
   8   3  -2 1440.46 148.885   9
  -8   3   2 1494.04 176.726   5
  -8   3   2 1564.53 193.401  16
   8  -3   2 1177.05 134.742   7
  -8   3   2 1463.17 176.753  11
  -8   3   1 1313.37 161.374  11
  -8  -3  -1 1179.26 159.097   5
  -8   3   1 1138.50 154.836   5
  -8   3   1 1039.76 164.623  16
  -8   3   0 58.1518 90.9832  11
  -8  -3   0 160.730 92.0602   5
  -8   3   0 25.8364 85.7101   5
  -8   3   0 14.6272 102.791  16
  -8   3  -1 1097.62 138.525  11
  -8  -3   1 1166.04 161.406   5
  -8   3  -1 1171.52 155.333   5
  -8   3  -1 1208.61 172.837  16
  -8   3  -2 1246.36 159.504   5
  -8   3  -2 1433.79 150.164  11
  -8   3  -3 10334.9 438.140   5
   8   3   3 9381.63 399.614  13
  -8  -3   3 9372.42 439.488  11
  -8  -3   4 16430.3 621.059   5
   8   3   4 15520.1 575.854  13
  -8  -3   4 16194.1 623.273  11
  -8  -3   5 2271.16 199.401   5
   8   3   5 2067.03 188.887  13
  -8  -3   5 2089.93 198.517  11
  -8  -3   6 12551.8 504.417   5
   8   3   6 12815.4 502.250  13
  -8  -3   6 12615.4 530.512  11
   8   3   7 680.325 129.544   9
  -8  -3   7 860.275 123.863   5
   8   3   7 877.892 130.231  13
   8   3   8 132.581 94.4700   9
  -8  -3   8 151.865 71.7961   5
   8   3   8 133.568 80.3001  15
   8   3   8 247.197 96.7080  13
   8   3   9 11500.7 426.156  15
   8   3   9 11633.0 459.897  13
   8   3  10 644.853 94.5546  15
   8   3  10 608.807 110.054  13
   8   3  11 1477.05 136.974   9
   8   3  11 1430.01 118.517  15
   8   3  11 1629.38 146.086  13
   8   3  12 497.789 82.8654   9
   8   3  12 387.743 63.6975  15
   8   3  12 648.174 94.6368  13
   8   3  13 6469.91 250.906   9
   8   3  13 6964.67 273.408  12
   8   3  14 1143.28 88.9520  13
  -8   4  12 475.341 71.6703  11
   8  -4  12 355.176 64.4197  15
   8  -4  11 4756.56 229.946  15
  -8   4  11 5672.30 247.520  11
  -8   4  10 6433.92 293.437  11
   8  -4   9 56.2141 64.4594   7
   8  -4   8 3535.47 215.659   7
  -8   4   8 4047.01 244.181  11
  -8   4   7 10384.5 434.786  16
   8  -4   7 9290.30 390.110   7
  -8   4   7 9788.76 427.767  11
  -8  -4  -6 1430.63 141.731   5
  -8   4   6 1844.01 183.770  16
   8  -4   6 1622.59 152.440   7
  -8   4   6 1828.35 174.184  11
  -8   4   5 978.748 138.384  11
  -8  -4  -5 1103.99 136.345   5
   8  -4   5 1030.40 124.354   7
  -8  -4  -4 5920.75 304.885   5
  -8   4   4 5466.92 324.744  16
   8  -4   4 4733.56 260.969   7
  -8   4   4 5456.34 312.259  11
  -8  -4  -3 2203.44 193.008   5
  -8   4   3 2396.55 217.052  16
  -8   4   3 2521.25 208.519  11
  -8  -4  -2 3942.71 262.357   5
  -8   4   2 3952.19 279.710  16
  -8   4   2 4296.47 270.744  11
  -8  -4  -1 5197.45 300.867   5
   8   4  -1 4690.00 255.130   9
  -8   4   1 5451.75 326.845  16
  -8   4   1 4429.35 275.378  11
  -8   4   0 32.1089 74.3877  11
   8   4   0 20.0499 78.4165   9
  -8  -4   0 87.2411 86.6189   5
  -8   4   0-13.4935 95.8412  16
  -8  -4   1 5417.19 311.403   5
   8   4   1 4449.40 271.150   9
  -8   4  -1 5317.38 319.337  16
  -8   4  -1 5065.21 273.040  11
   8   4   2 3935.97 252.280   9
  -8   4  -2 4313.02 277.125  16
  -8   4  -2 3905.69 227.345  11
  -8  -4   3 2190.13 195.294   5
   8   4   3 2304.81 195.689   9
  -8  -4   4 5194.94 299.043   5
   8   4   4 5641.11 307.278   9
   8   4   4 5229.78 257.047  13
   8   4   5 909.674 139.880   9
  -8  -4   5 903.029 128.377   5
   8   4   5 881.236 116.439  13
  -8  -4   6 1536.99 154.413   5
   8   4   6 1921.25 177.727   9
   8   4   6 1785.75 154.894  13
   8   4   7 9851.08 419.233   9
  -8  -4   7 9646.42 392.234   5
   8   4   7 9123.41 379.690  13
   8   4   8 3737.02 235.539   9
   8   4   8 3647.01 214.960  13
   8   4   9 150.721 87.1788   9
   8   4   9 79.6417 71.5042  13
   8   4  10 6563.37 286.498  13
   8   4  11 5200.72 239.700   9
   8   4  11 5386.14 242.994  13
   8   4  12 345.902 66.0179   9
   8   4  12 466.962 72.4315  13
   8   4  13 6722.60 248.239  13
   8   4  13 7264.22 255.576  12
  -8   5  11 545.776 72.8262  11
  -8   5  10 6299.15 263.924  11
  -8   5   8 1194.42 130.776  11
  -8   5   7 3361.25 214.943  16
  -8   5   7 2899.18 200.914  11
  -8   5   6 814.752 125.615  11
  -8   5   6 545.751 114.069  16
  -8  -5  -5 2021.77 162.833   5
  -8   5   5 2329.23 188.022  11
  -8   5   4 531.992 108.439  11
  -8  -5  -4 686.497 110.172   5
  -8   5   4 487.958 121.776  16
  -8  -5  -3 1609.36 159.834   5
  -8   5   3 1426.31 169.854  16
  -8   5   3 1809.01 168.274  11
  -8   5   2 1223.78 142.374  11
  -8  -5  -2 1206.27 142.416   5
  -8   5   2 1166.54 152.854  16
  -8  -5  -1 1236.89 147.865   5
   8   5  -1 1247.34 117.065   9
  -8   5   1 1454.09 171.056  16
  -8   5   1 1465.32 151.788  11
  -8  -5   0 2630.24 208.328   5
   8   5   0 3080.33 191.537   9
  -8   5   0 3134.83 229.763  16
  -8   5   0 3047.41 201.651  11
  -8  -5   1 1451.65 155.572   5
   8   5   1 1230.14 134.464   9
  -8   5  -1 1131.16 153.055  16
  -8   5  -1 1379.83 133.408  11
   8   5   2 1153.57 133.387   9
  -8   5  -2 1074.75 139.796  16
  -8   5  -2 1037.85 111.883  11
  -8  -5   3 1602.00 158.597   5
   8   5   3 1480.93 151.573   9
  -8   5  -3 1690.68 162.131  16
   8   5   4 669.035 110.470   9
  -8  -5   4 606.815 107.241   5
  -8  -5   5 2270.73 175.142   5
   8   5   5 2255.86 178.434   9
   8   5   6 768.240 115.096   9
  -8  -5   6 582.238 93.6427   5
   8   5   6 574.801 84.7607  13
   8   5   7 3319.82 204.860   9
   8   5   7 2766.20 167.169  13
   8   5   8 1108.04 126.498   9
   8   5   8 906.365 96.6908  13
   8   5   9 3304.03 186.063   9
   8   5   9 2585.76 156.266  13
   8   5  10 5928.74 240.859  13
   8   5  10 6402.28 266.555  12
   8   5  11 592.915 75.3334   9
   8   5  11 498.739 64.2326  13
   8   5  11 613.003 77.9239  12
  -8   6   8 2846.81 166.665  11
  -8   6   7 2760.81 172.100  16
  -8   6   7 2723.52 171.644  11
  -8   6   6 1796.64 151.953  16
  -8   6   6 1904.84 150.587  11
  -8   6   5 1369.04 134.422  11
  -8   6   4 3124.01 209.222  16
  -8   6   4 3180.75 198.684  11
  -8  -6  -3 2769.90 189.138   5
  -8   6   3 2977.15 208.956  16
  -8   6   3 3021.22 194.935  11
  -8  -6  -2 6094.40 299.949   5
  -8   6   2 6674.47 323.560  16
  -8   6   2 6748.64 301.289  11
  -8  -6  -1 2202.68 174.404   5
  -8   6   1 2494.99 189.849  16
  -8   6   1 2521.46 173.761  11
  -8   6   0 630.316 92.2958  11
  -8  -6   0 440.979 91.0172   5
  -8   6   0 466.628 101.996  16
   8   6   1 2330.75 150.978   9
  -8   6  -1 2403.02 181.774  16
  -8   6  -1 2288.50 149.702  11
  -8  -6   2 6485.29 305.302   5
  -8   6  -2 6877.42 304.362  16
  -8  -6   3 2841.48 188.058   5
   8   6   3 2803.14 174.137   9
  -8   6  -3 2782.22 177.150  16
   8   6   4 3277.67 184.730   9
   8   6   4 2307.90 149.974  12
   8   6   5 1406.82 127.491   9
   8   6   5 1060.48 105.744  12
   8   6   6 2052.63 146.334   9
   8   6   6 1594.83 125.227  12
  -8  -6   7 2250.96 141.708  18
   8   6   7 2284.67 145.360  12
   8   6   8 2779.69 159.629   9
   8   6   8 2617.72 150.372  12
   8   6   9 778.325 85.3588   9
   8   6   9 882.686 82.4546  12
  -8   7   7 2873.75 145.373  11
  -8   7   6 770.971 88.7429  16
  -8   7   6 774.408 82.9461  11
  -8  -7  -5 1135.07 88.4835  18
  -8   7   5 1325.90 107.919  11
  -8   7   4 166.458 61.6755  11
  -8   7   4 96.2628 64.1939  16
  -8   7   3 4000.44 207.142  16
  -8   7   3 3450.96 182.744  11
  -8   7   2 622.255 83.7239  11
  -8   7   2 833.824 105.662  16
  -8   7   1 204.640 58.5038  11
  -8   7   1 255.791 75.5330  16
  -8   7   0 1575.87 131.398  16
  -8   7   0 1296.10 98.3034  11
  -8   7  -1 219.192 67.9953  16
  -8  -7   4 182.096 64.2240  18
  -8  -7   5 1102.94 100.076  18
  -8  -8   0 131.220 43.1092  18
  -8  -8   1 237.875 51.3537  18
  -9   0   0-27.4844 62.2433   5
  -9   0   0-29.6984 59.6653  11
  -9   0   1 1518.12 149.088   5
  -9   0  -1 1832.39 155.909   5
  -9   0   1 1742.07 136.357  11
  -9   0   2 7.55017 61.1050  11
  -9   0   2 45.9401 68.6530   5
  -9   0  -2 109.801 68.3543   5
   9   0   3 14364.0 485.868  13
  -9   0   3 17218.1 545.225  11
   9   0   4 9317.99 355.775  13
  -9   0   4 10407.1 391.868  11
   9   0   5 2743.62 171.598  13
  -9   0   5 3598.42 204.290  11
   9   0   6 4724.53 227.425  13
  -9   0   6 4814.89 241.709  11
   9   0   7 1216.81 115.149  13
  -9   0   7 1634.51 136.868  11
   9   0   8 1263.91 109.399  13
  -9   0   8 1302.94 118.582  11
   9   0   9 5762.34 236.142  15
   9   0   9 5179.66 223.901  13
  -9   0   9 5812.16 242.133  11
   9   0  10 220.384 49.0349   9
   9  -1  10 272.172 56.4378  15
   9  -1   9 3659.95 187.592  15
   9  -1   9 3335.48 175.165  13
   9  -1   8 1111.68 106.868  13
  -9   1   8 1094.48 111.088  11
   9  -1   7 5447.89 253.030  13
  -9   1   7 6436.52 273.557  11
   9  -1   6 4363.54 224.442  13
  -9   1   6 4750.77 237.649  11
  -9   1   5 480.573 92.8239  11
   9  -1   5 541.204 92.6639  13
   9  -1   4 3316.32 198.814  13
  -9   1   4 4856.97 235.569  11
  -9   1   3 1053.30 126.622   5
   9  -1   3 1312.15 120.329  13
  -9   1   3 1523.08 137.803  11
  -9  -1  -2 6003.89 283.839   5
  -9   1   2 5969.06 291.727   5
  -9   1   2 5745.56 269.226  11
  -9   1   1 812.195 102.412  11
  -9  -1  -1 963.605 117.940   5
  -9   1   1 975.439 121.491   5
  -9  -1   0 2451.25 181.815   5
  -9   1   0 2690.16 184.831   5
  -9   1   0 2133.16 143.469  11
  -9  -1   1 1134.20 127.393   5
  -9   1  -1 783.499 107.950   5
  -9  -1   2 6082.41 296.026   5
  -9   1  -2 6234.71 287.954   5
  -9  -1   3 1212.25 123.877  11
  -9  -1   4 4208.85 235.669   5
  -9  -1   4 4634.91 235.976  11
   9   1   5 455.761 74.4459  13
  -9  -1   5 522.869 96.3799  11
   9   1   6 4164.60 200.974  13
  -9  -1   6 4925.26 238.231  11
   9   1   7 5708.13 243.569  15
   9   1   7 5212.25 228.492  13
   9   1   8 1420.63 119.997   9
   9   1   8 1148.83 101.490  15
   9   1   8 1138.36 99.9801  13
   9   1   9 3565.42 164.303  13
   9   1  10 309.072 53.4643   9
   9  -2   9 5397.34 224.490  13
  -9   2   9 5881.67 229.575  11
   9  -2   8 6515.59 269.513  13
  -9   2   8 7353.67 279.571  11
   9  -2   7 2458.14 156.003  13
  -9   2   7 2406.79 156.927  11
  -9   2   6 2394.80 160.414  11
  -9   2   5 7042.11 301.146  11
  -9   2   4 4655.27 234.891  11
  -9   2   3 5840.14 266.721  11
  -9   2   2 1291.38 121.904  11
  -9  -2  -1 1724.30 147.882   5
  -9   2   1 1662.17 130.081  11
   9   2   0 2305.33 149.047   9
  -9   2   0 2184.40 138.907  11
   9   2   1 1620.14 132.946   9
  -9  -2   1 1854.90 156.425   5
   9   2   2 1186.53 122.386   9
  -9  -2   2 1236.31 129.216   5
   9   2   3 5413.40 256.212   9
   9   2   4 4419.22 228.531   9
   9   2   5 6663.84 279.824   9
   9   2   5 5569.94 234.144  15
   9   2   6 2068.62 148.124   9
   9   2   6 1689.92 111.348  15
   9   2   7 2400.71 154.134   9
   9   2   8 7505.73 287.029   9
  -9   3   8 452.177 65.3939  11
   9  -3   8 477.974 68.9200  13
  -9   3   7 1643.29 120.330  11
  -9   3   6 7794.08 301.431  11
  -9   3   5 5092.74 231.893  11
  -9   3   4 5980.47 259.890  11
  -9   3   3 1141.42 108.715  11
  -9   3   2 1731.63 126.912  11
  -9   3   1 2235.52 139.083  11
   9   3   1 2410.52 141.354   9
   9   3   2 1643.26 124.998   9
   9   3   3 1123.57 107.825   9
   9   3   4 6175.99 261.840   9
   9   3   5 4856.54 224.399   9
   9   3   6 7305.96 286.007   9
   9   3   7 1444.59 110.839   9
   9   3   8 596.997 69.8247   9
  -9   4   6 1969.24 119.288  11
  -9   4   5 1899.25 121.088  11
  -9   4   4 7849.59 287.068  11
  -9   4   3 1403.97 105.935  11
  -9   4   2 606.773 71.2973  11
   9   4   2 609.344 65.7394   9
   9   4   3 1437.86 100.345   9
   9   4   4 8102.85 286.552   9
   9   4   5 1802.71 114.378   9
   9   4   6 2248.22 123.355   9
   0   0   0    0.00    0.00   0

TITL SH2185_Cu in P2(1)2(1)2(1)
REM P2(1)2(1)2(1) (#19 in standard setting)
CELL 1.54184   7.719213  11.067203  20.936588  90.0000  90.0000  90.0000
ZERR    1.00   0.000069   0.000100   0.000192   0.0000   0.0000   0.0000
LATT -1
SYMM -x+1/2,-y, z+1/2
SYMM -x, y+1/2,-z+1/2
SYMM  x+1/2,-y+1/2,-z
SFAC C H N O
UNIT 92.00 92.00 1.00 4.00
TREF
HKLF 4
END
;
_shelx_hkl_checksum               1998
_olex2_submission_special_instructions 'No special instructions were received'
_oxdiff_exptl_absorpt_empirical_details
;
Empirical correction (ABSPACK) includes:
- Absorption correction using spherical harmonics
- Frame scaling
;
_oxdiff_exptl_absorpt_empirical_full_max 1.150
_oxdiff_exptl_absorpt_empirical_full_min 0.861
