 
data_twin4
 
_audit_creation_method            'SHELXL-2018/3'
_shelx_SHELXL_version_number      '2018/3'
_chemical_name_systematic         ?
_chemical_name_common             ?
_chemical_melting_point           ?
_chemical_formula_moiety          ?
_chemical_formula_sum
 'C23 H21 N O' 
_chemical_formula_weight          327.41

loop_
 _atom_type_symbol
 _atom_type_description
 _atom_type_scat_dispersion_real
 _atom_type_scat_dispersion_imag
 _atom_type_scat_source
 'C'  'C'   0.0033   0.0016
 'International Tables Vol C Tables 4.2.6.8 and 6.1.1.4'
 'H'  'H'   0.0000   0.0000
 'International Tables Vol C Tables 4.2.6.8 and 6.1.1.4'
 'N'  'N'   0.0061   0.0033
 'International Tables Vol C Tables 4.2.6.8 and 6.1.1.4'
 'O'  'O'   0.0106   0.0060
 'International Tables Vol C Tables 4.2.6.8 and 6.1.1.4'
 
_space_group_crystal_system       triclinic
_space_group_IT_number            2
_space_group_name_H-M_alt         'P -1'
_space_group_name_Hall            '-P 1'
 
_shelx_space_group_comment
;
The symmetry employed for this shelxl refinement is uniquely defined
by the following loop, which should always be used as a source of
symmetry information in preference to the above space-group names.
They are only intended as comments.
;
 
loop_
 _space_group_symop_operation_xyz
 'x, y, z'
 '-x, -y, -z'
 
_cell_length_a                    8.1475(7)
_cell_length_b                    9.4260(7)
_cell_length_c                    11.6175(8)
_cell_angle_alpha                 79.430(3)
_cell_angle_beta                  82.715(4)
_cell_angle_gamma                 79.618(3)
_cell_volume                      858.64(11)
_cell_formula_units_Z             2
_cell_measurement_temperature     100(2)
_cell_measurement_reflns_used     ?
_cell_measurement_theta_min       ?
_cell_measurement_theta_max       ?
 
_exptl_crystal_description        ?
_exptl_crystal_colour             ?
_exptl_crystal_density_meas       ?
_exptl_crystal_density_method     ?
_exptl_crystal_density_diffrn     1.266          
_exptl_crystal_F_000              348
_exptl_transmission_factor_min    ?
_exptl_transmission_factor_max    ?
_exptl_crystal_size_max           0.180
_exptl_crystal_size_mid           0.150
_exptl_crystal_size_min           0.060
_exptl_absorpt_coefficient_mu     0.077
_shelx_estimated_absorpt_T_min    0.986
_shelx_estimated_absorpt_T_max    0.995
_exptl_absorpt_correction_type    ?
_exptl_absorpt_correction_T_min   ?
_exptl_absorpt_correction_T_max   ?
_exptl_absorpt_process_details    ?
_exptl_absorpt_special_details    ?
_diffrn_ambient_temperature
_diffrn_radiation_wavelength      0.71073
_diffrn_radiation_type            MoK\a
_diffrn_source                    ?
_diffrn_measurement_device_type   ?
_diffrn_measurement_method        ?
_diffrn_detector_area_resol_mean  ?
_diffrn_reflns_number             3952
_diffrn_reflns_av_unetI/netI      0.0162
_diffrn_reflns_av_R_equivalents   ?
_diffrn_reflns_limit_h_min        ?
_diffrn_reflns_limit_h_max        ?
_diffrn_reflns_limit_k_min        ?
_diffrn_reflns_limit_k_max        ?
_diffrn_reflns_limit_l_min        ?
_diffrn_reflns_limit_l_max        ?
_diffrn_reflns_theta_min          1.792
_diffrn_reflns_theta_max          27.508
_diffrn_reflns_theta_full         25.242
_diffrn_measured_fraction_theta_max   0.998
_diffrn_measured_fraction_theta_full  1.000
_diffrn_reflns_Laue_measured_fraction_max    0.998
_diffrn_reflns_Laue_measured_fraction_full   1.000
_diffrn_reflns_point_group_measured_fraction_max   0.998
_diffrn_reflns_point_group_measured_fraction_full  1.000
_reflns_number_total              3952
_reflns_number_gt                 3557
_reflns_threshold_expression      'I > 2\s(I)'
_reflns_Friedel_coverage          0.000
_reflns_Friedel_fraction_max      .
_reflns_Friedel_fraction_full     .
 
_reflns_special_details
;
 Reflections were merged by SHELXL according to the crystal
 class for the calculation of statistics and refinement.
 
 _reflns_Friedel_fraction is defined as the number of unique
 Friedel pairs measured divided by the number that would be
 possible theoretically, ignoring centric projections and
 systematic absences.
;
 
_computing_data_collection        ?
_computing_cell_refinement        ?
_computing_data_reduction         ?
_computing_structure_solution     ?
_computing_structure_refinement 'SHELXL-2018/3 (Sheldrick, 2018)'
_computing_molecular_graphics     ?
_computing_publication_material   ?
_refine_special_details           ?
_refine_ls_structure_factor_coef  Fsqd
_refine_ls_matrix_type            full
_refine_ls_weighting_scheme       calc
_refine_ls_weighting_details
'w=1/[\s^2^(Fo^2^)+(0.0423P)^2^+0.9970P] where P=(Fo^2^+2Fc^2^)/3'
_atom_sites_solution_primary      ?
_atom_sites_solution_secondary    ?
_atom_sites_solution_hydrogens    geom
_refine_ls_hydrogen_treatment     constr
_refine_ls_extinction_method      none
_refine_ls_extinction_coef        .
_refine_ls_number_reflns          3952
_refine_ls_number_parameters      227
_refine_ls_number_restraints      0
_refine_ls_R_factor_all           0.0594
_refine_ls_R_factor_gt            0.0540
_refine_ls_wR_factor_ref          0.1431
_refine_ls_wR_factor_gt           0.1405
_refine_ls_goodness_of_fit_ref    1.143
_refine_ls_restrained_S_all       1.143
_refine_ls_shift/su_max           0.000
_refine_ls_shift/su_mean          0.000
 
loop_
 _atom_site_label
 _atom_site_type_symbol
 _atom_site_fract_x
 _atom_site_fract_y
 _atom_site_fract_z
 _atom_site_U_iso_or_equiv
 _atom_site_adp_type
 _atom_site_occupancy
 _atom_site_site_symmetry_order  
 _atom_site_calc_flag
 _atom_site_refinement_flags_posn
 _atom_site_refinement_flags_adp
 _atom_site_refinement_flags_occupancy
 _atom_site_disorder_assembly
 _atom_site_disorder_group
O001 O 0.24884(17) 0.28200(15) 0.51920(12) 0.0245(3) Uani 1 1 d . . . . .
C1 C 0.0548(3) 0.1794(2) 0.43475(18) 0.0239(4) Uani 1 1 d . . . . .
H1A H 0.081817 0.158159 0.354409 0.036 Uiso 1 1 calc R U . . .
H1B H -0.066409 0.210370 0.449214 0.036 Uiso 1 1 calc R U . . .
H1C H 0.090087 0.091318 0.490897 0.036 Uiso 1 1 calc R U . . .
N002 N 0.10550(18) 0.43412(16) 0.37741(13) 0.0169(3) Uani 1 1 d . . . . .
C2 C 0.1450(2) 0.2995(2) 0.44968(16) 0.0188(4) Uani 1 1 d . . . . .
C3 C 0.1840(2) 0.55744(19) 0.37193(15) 0.0164(3) Uani 1 1 d . . . . .
C4 C 0.3049(2) 0.5808(2) 0.43807(16) 0.0186(4) Uani 1 1 d . . . . .
H4 H 0.346925 0.508239 0.500152 0.022 Uiso 1 1 calc R U . . .
C5 C 0.3618(2) 0.7147(2) 0.40954(17) 0.0209(4) Uani 1 1 d . . . . .
H5 H 0.445639 0.733303 0.452085 0.025 Uiso 1 1 calc R U . . .
C7 C 0.1751(2) 0.7992(2) 0.25554(16) 0.0199(4) Uani 1 1 d . . . . .
H7 H 0.130650 0.873445 0.195451 0.024 Uiso 1 1 calc R U . . .
C6 C 0.2979(2) 0.8226(2) 0.31951(17) 0.0215(4) Uani 1 1 d . . . . .
H6 H 0.338950 0.913019 0.301863 0.026 Uiso 1 1 calc R U . . .
C9 C -0.0049(2) 0.6056(2) 0.23116(15) 0.0172(4) Uani 1 1 d . . . . .
C8 C 0.1182(2) 0.66475(19) 0.28097(15) 0.0170(3) Uani 1 1 d . . . . .
C10 C -0.0083(2) 0.4682(2) 0.29104(15) 0.0184(4) Uani 1 1 d . . . . .
H10 H -0.077816 0.403781 0.276643 0.022 Uiso 1 1 calc R U . . .
C11 C -0.1133(2) 0.68158(19) 0.13778(15) 0.0173(3) Uani 1 1 d . . . . .
C12 C -0.2808(2) 0.6988(2) 0.16271(17) 0.0221(4) Uani 1 1 d . . . . .
H12 H -0.323923 0.664972 0.240851 0.027 Uiso 1 1 calc R U . . .
C13 C -0.4039(2) 0.7681(2) 0.07486(18) 0.0256(4) Uani 1 1 d . . . . .
H13A H -0.452826 0.867799 0.089965 0.031 Uiso 1 1 calc R U . . .
H13B H -0.496112 0.710190 0.084394 0.031 Uiso 1 1 calc R U . . .
C14 C -0.3203(2) 0.7769(2) -0.05078(17) 0.0251(4) Uani 1 1 d . . . . .
H14A H -0.396685 0.841084 -0.105477 0.030 Uiso 1 1 calc R U . . .
H14B H -0.296975 0.678334 -0.073156 0.030 Uiso 1 1 calc R U . . .
C15 C -0.1566(2) 0.8378(2) -0.06045(16) 0.0218(4) Uani 1 1 d . . . . .
H15A H -0.104398 0.844944 -0.142609 0.026 Uiso 1 1 calc R U . . .
H15B H -0.180678 0.937352 -0.039891 0.026 Uiso 1 1 calc R U . . .
C16 C -0.0355(2) 0.7406(2) 0.02094(16) 0.0189(4) Uani 1 1 d . . . . .
C17 C 0.1300(2) 0.7066(2) -0.00895(16) 0.0201(4) Uani 1 1 d . . . . .
H17 H 0.191789 0.638667 0.047130 0.024 Uiso 1 1 calc R U . . .
C18 C 0.2271(2) 0.7631(2) -0.11932(16) 0.0195(4) Uani 1 1 d . . . . .
C19 C 0.3513(2) 0.6666(2) -0.17270(17) 0.0227(4) Uani 1 1 d . . . . .
H19 H 0.372852 0.566691 -0.137339 0.027 Uiso 1 1 calc R U . . .
C20 C 0.4442(2) 0.7153(2) -0.27767(18) 0.0253(4) Uani 1 1 d . . . . .
H20 H 0.526480 0.648477 -0.314416 0.030 Uiso 1 1 calc R U . . .
C21 C 0.4157(3) 0.8617(2) -0.32774(17) 0.0256(4) Uani 1 1 d . . . . .
H21 H 0.478391 0.895172 -0.399105 0.031 Uiso 1 1 calc R U . . .
C22 C 0.2965(3) 0.9590(2) -0.27435(17) 0.0246(4) Uani 1 1 d . . . . .
H22 H 0.278748 1.059622 -0.308138 0.030 Uiso 1 1 calc R U . . .
C23 C 0.2027(2) 0.9098(2) -0.17117(17) 0.0222(4) Uani 1 1 d . . . . .
H23 H 0.120305 0.977429 -0.135289 0.027 Uiso 1 1 calc R U . . .
 
loop_
 _atom_site_aniso_label
 _atom_site_aniso_U_11
 _atom_site_aniso_U_22
 _atom_site_aniso_U_33
 _atom_site_aniso_U_23
 _atom_site_aniso_U_13
 _atom_site_aniso_U_12
O001 0.0239(7) 0.0238(7) 0.0238(7) 0.0056(5) -0.0064(6) -0.0055(5)
C1 0.0276(10) 0.0179(9) 0.0259(10) -0.0002(7) -0.0021(8) -0.0067(7)
N002 0.0176(7) 0.0163(7) 0.0170(7) -0.0001(6) -0.0030(6) -0.0051(6)
C2 0.0186(8) 0.0188(8) 0.0167(8) 0.0008(7) 0.0020(7) -0.0034(7)
C3 0.0159(8) 0.0164(8) 0.0164(8) -0.0017(6) 0.0001(6) -0.0035(6)
C4 0.0177(8) 0.0192(8) 0.0183(8) -0.0021(7) -0.0032(7) -0.0015(7)
C5 0.0182(8) 0.0238(9) 0.0226(9) -0.0068(7) -0.0030(7) -0.0046(7)
C7 0.0201(8) 0.0180(9) 0.0205(9) 0.0012(7) -0.0033(7) -0.0034(7)
C6 0.0216(9) 0.0195(9) 0.0245(9) -0.0035(7) -0.0013(7) -0.0070(7)
C9 0.0149(8) 0.0208(9) 0.0160(8) -0.0020(7) -0.0008(6) -0.0050(6)
C8 0.0145(8) 0.0205(9) 0.0160(8) -0.0019(7) -0.0017(6) -0.0036(6)
C10 0.0166(8) 0.0221(9) 0.0174(8) -0.0023(7) -0.0033(7) -0.0055(7)
C11 0.0182(8) 0.0170(8) 0.0171(8) -0.0013(6) -0.0042(7) -0.0037(6)
C12 0.0215(9) 0.0234(9) 0.0212(9) -0.0009(7) -0.0023(7) -0.0055(7)
C13 0.0184(9) 0.0287(10) 0.0285(10) -0.0003(8) -0.0042(8) -0.0036(7)
C14 0.0222(9) 0.0289(10) 0.0244(10) 0.0008(8) -0.0097(8) -0.0051(8)
C15 0.0212(9) 0.0244(9) 0.0185(9) 0.0003(7) -0.0044(7) -0.0025(7)
C16 0.0208(9) 0.0190(8) 0.0174(8) -0.0009(7) -0.0052(7) -0.0044(7)
C17 0.0213(9) 0.0212(9) 0.0174(8) -0.0004(7) -0.0042(7) -0.0036(7)
C18 0.0177(8) 0.0263(9) 0.0158(8) -0.0030(7) -0.0038(7) -0.0058(7)
C19 0.0227(9) 0.0201(9) 0.0269(10) -0.0032(7) -0.0055(7) -0.0059(7)
C20 0.0222(9) 0.0294(10) 0.0272(10) -0.0126(8) 0.0018(8) -0.0063(8)
C21 0.0282(10) 0.0340(11) 0.0175(9) -0.0030(8) -0.0022(7) -0.0139(8)
C22 0.0285(10) 0.0243(9) 0.0225(9) -0.0003(7) -0.0065(8) -0.0086(8)
C23 0.0238(9) 0.0228(9) 0.0209(9) -0.0043(7) -0.0051(7) -0.0032(7)
 
_geom_special_details
;
 All esds (except the esd in the dihedral angle between two l.s. planes)
 are estimated using the full covariance matrix.  The cell esds are taken
 into account individually in the estimation of esds in distances, angles
 and torsion angles; correlations between esds in cell parameters are only
 used when they are defined by crystal symmetry.  An approximate (isotropic)
 treatment of cell esds is used for estimating esds involving l.s. planes.
;
 
loop_
 _geom_bond_atom_site_label_1
 _geom_bond_atom_site_label_2
 _geom_bond_distance
 _geom_bond_site_symmetry_2
 _geom_bond_publ_flag
O001 C2 1.212(2) . ?
C1 C2 1.502(3) . ?
C1 H1A 0.9800 . ?
C1 H1B 0.9800 . ?
C1 H1C 0.9800 . ?
N002 C2 1.396(2) . ?
N002 C10 1.407(2) . ?
N002 C3 1.412(2) . ?
C3 C4 1.394(2) . ?
C3 C8 1.408(2) . ?
C4 C5 1.391(3) . ?
C4 H4 0.9500 . ?
C5 C6 1.398(3) . ?
C5 H5 0.9500 . ?
C7 C6 1.389(3) . ?
C7 C8 1.395(2) . ?
C7 H7 0.9500 . ?
C6 H6 0.9500 . ?
C9 C10 1.356(3) . ?
C9 C8 1.456(2) . ?
C9 C11 1.483(2) . ?
C10 H10 0.9500 . ?
C11 C12 1.345(3) . ?
C11 C16 1.478(2) . ?
C12 C13 1.501(3) . ?
C12 H12 0.9500 . ?
C13 C14 1.525(3) . ?
C13 H13A 0.9900 . ?
C13 H13B 0.9900 . ?
C14 C15 1.528(3) . ?
C14 H14A 0.9900 . ?
C14 H14B 0.9900 . ?
C15 C16 1.516(2) . ?
C15 H15A 0.9900 . ?
C15 H15B 0.9900 . ?
C16 C17 1.344(3) . ?
C17 C18 1.482(2) . ?
C17 H17 0.9500 . ?
C18 C23 1.393(3) . ?
C18 C19 1.397(3) . ?
C19 C20 1.399(3) . ?
C19 H19 0.9500 . ?
C20 C21 1.386(3) . ?
C20 H20 0.9500 . ?
C21 C22 1.380(3) . ?
C21 H21 0.9500 . ?
C22 C23 1.389(3) . ?
C22 H22 0.9500 . ?
C23 H23 0.9500 . ?
 
loop_
 _geom_angle_atom_site_label_1
 _geom_angle_atom_site_label_2
 _geom_angle_atom_site_label_3
 _geom_angle
 _geom_angle_site_symmetry_1
 _geom_angle_site_symmetry_3
 _geom_angle_publ_flag
C2 C1 H1A 109.5 . . ?
C2 C1 H1B 109.5 . . ?
H1A C1 H1B 109.5 . . ?
C2 C1 H1C 109.5 . . ?
H1A C1 H1C 109.5 . . ?
H1B C1 H1C 109.5 . . ?
C2 N002 C10 126.69(15) . . ?
C2 N002 C3 125.41(15) . . ?
C10 N002 C3 107.71(14) . . ?
O001 C2 N002 120.77(17) . . ?
O001 C2 C1 122.65(17) . . ?
N002 C2 C1 116.57(16) . . ?
C4 C3 C8 122.09(16) . . ?
C4 C3 N002 130.75(16) . . ?
C8 C3 N002 107.16(15) . . ?
C5 C4 C3 117.34(17) . . ?
C5 C4 H4 121.3 . . ?
C3 C4 H4 121.3 . . ?
C4 C5 C6 121.33(17) . . ?
C4 C5 H5 119.3 . . ?
C6 C5 H5 119.3 . . ?
C6 C7 C8 118.92(17) . . ?
C6 C7 H7 120.5 . . ?
C8 C7 H7 120.5 . . ?
C7 C6 C5 120.87(17) . . ?
C7 C6 H6 119.6 . . ?
C5 C6 H6 119.6 . . ?
C10 C9 C8 106.59(15) . . ?
C10 C9 C11 125.95(16) . . ?
C8 C9 C11 127.38(16) . . ?
C7 C8 C3 119.43(16) . . ?
C7 C8 C9 132.68(17) . . ?
C3 C8 C9 107.89(15) . . ?
C9 C10 N002 110.64(15) . . ?
C9 C10 H10 124.7 . . ?
N002 C10 H10 124.7 . . ?
C12 C11 C16 121.50(17) . . ?
C12 C11 C9 118.97(16) . . ?
C16 C11 C9 119.51(15) . . ?
C11 C12 C13 124.13(17) . . ?
C11 C12 H12 117.9 . . ?
C13 C12 H12 117.9 . . ?
C12 C13 C14 111.37(16) . . ?
C12 C13 H13A 109.4 . . ?
C14 C13 H13A 109.4 . . ?
C12 C13 H13B 109.4 . . ?
C14 C13 H13B 109.4 . . ?
H13A C13 H13B 108.0 . . ?
C13 C14 C15 110.03(16) . . ?
C13 C14 H14A 109.7 . . ?
C15 C14 H14A 109.7 . . ?
C13 C14 H14B 109.7 . . ?
C15 C14 H14B 109.7 . . ?
H14A C14 H14B 108.2 . . ?
C16 C15 C14 110.99(16) . . ?
C16 C15 H15A 109.4 . . ?
C14 C15 H15A 109.4 . . ?
C16 C15 H15B 109.4 . . ?
C14 C15 H15B 109.4 . . ?
H15A C15 H15B 108.0 . . ?
C17 C16 C11 121.25(16) . . ?
C17 C16 C15 123.87(17) . . ?
C11 C16 C15 114.87(15) . . ?
C16 C17 C18 127.49(17) . . ?
C16 C17 H17 116.3 . . ?
C18 C17 H17 116.3 . . ?
C23 C18 C19 118.19(17) . . ?
C23 C18 C17 122.72(17) . . ?
C19 C18 C17 119.06(17) . . ?
C18 C19 C20 120.73(18) . . ?
C18 C19 H19 119.6 . . ?
C20 C19 H19 119.6 . . ?
C21 C20 C19 119.65(18) . . ?
C21 C20 H20 120.2 . . ?
C19 C20 H20 120.2 . . ?
C22 C21 C20 120.25(18) . . ?
C22 C21 H21 119.9 . . ?
C20 C21 H21 119.9 . . ?
C21 C22 C23 119.95(18) . . ?
C21 C22 H22 120.0 . . ?
C23 C22 H22 120.0 . . ?
C22 C23 C18 121.19(18) . . ?
C22 C23 H23 119.4 . . ?
C18 C23 H23 119.4 . . ?
 
loop_
 _geom_torsion_atom_site_label_1
 _geom_torsion_atom_site_label_2
 _geom_torsion_atom_site_label_3
 _geom_torsion_atom_site_label_4
 _geom_torsion
 _geom_torsion_site_symmetry_1
 _geom_torsion_site_symmetry_2
 _geom_torsion_site_symmetry_3
 _geom_torsion_site_symmetry_4
 _geom_torsion_publ_flag
C10 N002 C2 O001 178.05(17) . . . . ?
C3 N002 C2 O001 3.5(3) . . . . ?
C10 N002 C2 C1 -0.9(3) . . . . ?
C3 N002 C2 C1 -175.43(16) . . . . ?
C2 N002 C3 C4 -4.9(3) . . . . ?
C10 N002 C3 C4 179.71(18) . . . . ?
C2 N002 C3 C8 174.66(16) . . . . ?
C10 N002 C3 C8 -0.72(19) . . . . ?
C8 C3 C4 C5 -1.1(3) . . . . ?
N002 C3 C4 C5 178.39(17) . . . . ?
C3 C4 C5 C6 1.1(3) . . . . ?
C8 C7 C6 C5 -1.2(3) . . . . ?
C4 C5 C6 C7 0.0(3) . . . . ?
C6 C7 C8 C3 1.2(3) . . . . ?
C6 C7 C8 C9 -179.37(18) . . . . ?
C4 C3 C8 C7 0.0(3) . . . . ?
N002 C3 C8 C7 -179.63(16) . . . . ?
C4 C3 C8 C9 -179.59(16) . . . . ?
N002 C3 C8 C9 0.79(19) . . . . ?
C10 C9 C8 C7 179.93(19) . . . . ?
C11 C9 C8 C7 -3.1(3) . . . . ?
C10 C9 C8 C3 -0.6(2) . . . . ?
C11 C9 C8 C3 176.40(17) . . . . ?
C8 C9 C10 N002 0.1(2) . . . . ?
C11 C9 C10 N002 -176.90(16) . . . . ?
C2 N002 C10 C9 -174.93(16) . . . . ?
C3 N002 C10 C9 0.4(2) . . . . ?
C10 C9 C11 C12 57.5(3) . . . . ?
C8 C9 C11 C12 -119.0(2) . . . . ?
C10 C9 C11 C16 -124.4(2) . . . . ?
C8 C9 C11 C16 59.2(2) . . . . ?
C16 C11 C12 C13 4.5(3) . . . . ?
C9 C11 C12 C13 -177.41(17) . . . . ?
C11 C12 C13 C14 16.1(3) . . . . ?
C12 C13 C14 C15 -47.3(2) . . . . ?
C13 C14 C15 C16 60.2(2) . . . . ?
C12 C11 C16 C17 -170.95(18) . . . . ?
C9 C11 C16 C17 11.0(3) . . . . ?
C12 C11 C16 C15 8.0(3) . . . . ?
C9 C11 C16 C15 -170.07(16) . . . . ?
C14 C15 C16 C17 138.81(19) . . . . ?
C14 C15 C16 C11 -40.1(2) . . . . ?
C11 C16 C17 C18 -176.39(17) . . . . ?
C15 C16 C17 C18 4.8(3) . . . . ?
C16 C17 C18 C23 42.8(3) . . . . ?
C16 C17 C18 C19 -138.8(2) . . . . ?
C23 C18 C19 C20 -2.3(3) . . . . ?
C17 C18 C19 C20 179.25(17) . . . . ?
C18 C19 C20 C21 1.6(3) . . . . ?
C19 C20 C21 C22 0.1(3) . . . . ?
C20 C21 C22 C23 -1.2(3) . . . . ?
C21 C22 C23 C18 0.5(3) . . . . ?
C19 C18 C23 C22 1.2(3) . . . . ?
C17 C18 C23 C22 179.67(17) . . . . ?
 
_refine_diff_density_max    0.381
_refine_diff_density_min   -0.274
_refine_diff_density_rms    0.054

_shelx_res_file
;
REM Solution 1  R1  0.161,  Alpha = 0.0792  in P-1
REM C23 N O
TITL p-1 in P-1
    twin4.res
    created by SHELXL-2018/3 at 13:34:29 on 21-Oct-2018
CELL  0.71073   8.1475   9.4260  11.6175   79.430   82.715   79.618
ZERR    2.00   0.0007   0.0007   0.0008   0.003   0.004   0.003
LATT  1
SFAC C H N O
UNIT 46 42 2 2
TEMP -173.300
SIZE 0.06 0.15 0.18
L.S. 10
BOND $H
LIST 4
ACTA
CONF
FMAP 2
PLAN 20
WGHT    0.042300    0.997000
FVAR       0.89450
O001  4    0.248838    0.282002    0.519200    11.00000    0.02388    0.02381 =
         0.02375    0.00557   -0.00637   -0.00554
C1    1    0.054780    0.179405    0.434753    11.00000    0.02761    0.01788 =
         0.02593   -0.00019   -0.00214   -0.00669
AFIX 137
H1A   2    0.081817    0.158159    0.354409    11.00000   -1.50000
H1B   2   -0.066409    0.210370    0.449214    11.00000   -1.50000
H1C   2    0.090087    0.091318    0.490897    11.00000   -1.50000
AFIX   0
N002  3    0.105502    0.434118    0.377409    11.00000    0.01757    0.01635 =
         0.01696   -0.00009   -0.00300   -0.00510
C2    1    0.144959    0.299502    0.449678    11.00000    0.01865    0.01880 =
         0.01669    0.00083    0.00201   -0.00336
C3    1    0.183970    0.557438    0.371930    11.00000    0.01590    0.01638 =
         0.01638   -0.00169    0.00006   -0.00346
C4    1    0.304948    0.580835    0.438073    11.00000    0.01774    0.01916 =
         0.01833   -0.00210   -0.00317   -0.00149
AFIX  43
H4    2    0.346925    0.508239    0.500152    11.00000   -1.20000
AFIX   0
C5    1    0.361753    0.714739    0.409543    11.00000    0.01816    0.02384 =
         0.02262   -0.00685   -0.00299   -0.00460
AFIX  43
H5    2    0.445639    0.733303    0.452085    11.00000   -1.20000
AFIX   0
C7    1    0.175138    0.799152    0.255544    11.00000    0.02013    0.01797 =
         0.02048    0.00121   -0.00332   -0.00335
AFIX  43
H7    2    0.130650    0.873445    0.195451    11.00000   -1.20000
AFIX   0
C6    1    0.297863    0.822558    0.319510    11.00000    0.02165    0.01946 =
         0.02452   -0.00350   -0.00130   -0.00702
AFIX  43
H6    2    0.338950    0.913019    0.301863    11.00000   -1.20000
AFIX   0
C9    1   -0.004941    0.605559    0.231161    11.00000    0.01490    0.02082 =
         0.01597   -0.00204   -0.00080   -0.00500
C8    1    0.118247    0.664754    0.280975    11.00000    0.01454    0.02051 =
         0.01600   -0.00194   -0.00165   -0.00360
C10   1   -0.008266    0.468160    0.291035    11.00000    0.01656    0.02213 =
         0.01741   -0.00232   -0.00330   -0.00551
AFIX  43
H10   2   -0.077816    0.403781    0.276643    11.00000   -1.20000
AFIX   0
C11   1   -0.113349    0.681579    0.137778    11.00000    0.01822    0.01695 =
         0.01710   -0.00129   -0.00417   -0.00373
C12   1   -0.280815    0.698813    0.162710    11.00000    0.02149    0.02336 =
         0.02122   -0.00087   -0.00226   -0.00553
AFIX  43
H12   2   -0.323923    0.664972    0.240851    11.00000   -1.20000
AFIX   0
C13   1   -0.403867    0.768136    0.074859    11.00000    0.01836    0.02866 =
         0.02848   -0.00030   -0.00419   -0.00364
AFIX  23
H13A  2   -0.452826    0.867799    0.089965    11.00000   -1.20000
H13B  2   -0.496112    0.710190    0.084394    11.00000   -1.20000
AFIX   0
C14   1   -0.320318    0.776946   -0.050785    11.00000    0.02224    0.02894 =
         0.02438    0.00083   -0.00974   -0.00512
AFIX  23
H14A  2   -0.396685    0.841084   -0.105477    11.00000   -1.20000
H14B  2   -0.296975    0.678334   -0.073156    11.00000   -1.20000
AFIX   0
C15   1   -0.156561    0.837797   -0.060447    11.00000    0.02117    0.02443 =
         0.01849    0.00030   -0.00441   -0.00247
AFIX  23
H15A  2   -0.104398    0.844944   -0.142609    11.00000   -1.20000
H15B  2   -0.180678    0.937352   -0.039891    11.00000   -1.20000
AFIX   0
C16   1   -0.035521    0.740596    0.020940    11.00000    0.02085    0.01902 =
         0.01740   -0.00094   -0.00522   -0.00438
C17   1    0.129966    0.706647   -0.008949    11.00000    0.02130    0.02118 =
         0.01737   -0.00037   -0.00417   -0.00355
AFIX  43
H17   2    0.191789    0.638667    0.047130    11.00000   -1.20000
AFIX   0
C18   1    0.227074    0.763062   -0.119321    11.00000    0.01769    0.02634 =
         0.01579   -0.00295   -0.00384   -0.00577
C19   1    0.351278    0.666551   -0.172705    11.00000    0.02272    0.02010 =
         0.02686   -0.00325   -0.00546   -0.00586
AFIX  43
H19   2    0.372852    0.566691   -0.137339    11.00000   -1.20000
AFIX   0
C20   1    0.444231    0.715343   -0.277670    11.00000    0.02222    0.02938 =
         0.02723   -0.01262    0.00177   -0.00635
AFIX  43
H20   2    0.526480    0.648477   -0.314416    11.00000   -1.20000
AFIX   0
C21   1    0.415690    0.861709   -0.327744    11.00000    0.02816    0.03402 =
         0.01748   -0.00301   -0.00216   -0.01394
AFIX  43
H21   2    0.478391    0.895172   -0.399105    11.00000   -1.20000
AFIX   0
C22   1    0.296542    0.959030   -0.274346    11.00000    0.02849    0.02427 =
         0.02253   -0.00035   -0.00645   -0.00861
AFIX  43
H22   2    0.278748    1.059622   -0.308138    11.00000   -1.20000
AFIX   0
C23   1    0.202659    0.909820   -0.171169    11.00000    0.02377    0.02281 =
         0.02093   -0.00431   -0.00506   -0.00322
AFIX  43
H23   2    0.120305    0.977429   -0.135289    11.00000   -1.20000
AFIX   0
HKLF 4




REM  p-1 in P-1
REM wR2 = 0.1431, GooF = S = 1.143, Restrained GooF = 1.143 for all data
REM R1 = 0.0540 for 3557 Fo > 4sig(Fo) and 0.0594 for all 3952 data
REM 227 parameters refined using 0 restraints

END

WGHT      0.0423      0.9970

REM Highest difference peak  0.381,  deepest hole -0.274,  1-sigma level  0.054
Q1    1  -0.1928  0.8576  0.1189  11.00000  0.05    0.38
Q2    1  -0.2338  0.6703 -0.0574  11.00000  0.05    0.36
Q3    1  -0.2588  0.9230  0.0014  11.00000  0.05    0.36
Q4    1   0.2772  0.9216 -0.2126  11.00000  0.05    0.34
Q5    1   0.2505  0.8387 -0.1243  11.00000  0.05    0.32
Q6    1  -0.1163  0.6108  0.0469  11.00000  0.05    0.31
Q7    1   0.2117  1.0806 -0.2225  11.00000  0.05    0.31
Q8    1   0.0339  0.6570  0.2604  11.00000  0.05    0.29
Q9    1   0.1751  0.6070  0.3220  11.00000  0.05    0.27
Q10   1  -0.3600  0.7636  0.0110  11.00000  0.05    0.25
Q11   1   0.1036  0.2368  0.4408  11.00000  0.05    0.25
Q12   1  -0.0522  0.6485  0.1854  11.00000  0.05    0.24
Q13   1   0.2527  0.5651  0.4057  11.00000  0.05    0.24
Q14   1   0.1570  0.4888  0.3789  11.00000  0.05    0.23
Q15   1   0.1696  0.7377 -0.0746  11.00000  0.05    0.23
Q16   1  -0.0770  0.6990  0.0807  11.00000  0.05    0.23
Q17   1   0.1177  0.7407  0.2837  11.00000  0.05    0.22
Q18   1  -0.0429  0.5634  0.2798  11.00000  0.05    0.21
Q19   1   0.4342  0.6198 -0.2213  11.00000  0.05    0.21
Q20   1  -0.1881  0.6451  0.1351  11.00000  0.05    0.21
;
_shelx_res_checksum   40933

_shelx_hkl_file
;
   1   0   0 1351.59 4.55608
   2   0   0 838.978 3.20052
   3   0   0 66.5932 0.57920
   4   0   0 139.031 1.01758
   5   0   0 12.0005 0.40442
   6   0   0 53.2969 0.78515
   7   0   0 205.831 2.30853
   8   0   0 25.0513 3.54995
   9   0   0 21.6926 1.37134
  10   0   0 22.5480 1.64047
 -10   1   0 5.14831 1.02865
  -9   1   0 16.6077 1.11350
  -8   1   0 1.23776 1.12200
  -7   1   0 61.4134 1.53346
  -6   1   0 51.4733 0.93861
  -5   1   0 148.963 1.36345
  -4   1   0 387.066 2.21199
  -3   1   0 39.8115 0.45768
  -2   1   0 24.3816 0.30905
  -1   1   0 1062.64 3.98593
   0   1   0 716.224 4.92248
   1   1   0 348.720 1.43467
   2   1   0 1299.89 4.79338
   3   1   0 118.795 0.79390
   4   1   0 235.856 1.44474
   5   1   0 74.0687 0.89066
   6   1   0 19.4375 0.51398
   7   1   0 0.88272 0.29997
   8   1   0 322.521 4.26255
   9   1   0 121.245 2.82745
  10   1   0 6.53421 0.98414
  -9   2   0 26.7653 1.46353
  -8   2   0 26.3397 1.83996
  -7   2   0 15.5560 0.85458
  -6   2   0 99.6528 1.42249
  -5   2   0 49.3902 0.69144
  -4   2   0 130.348 1.05305
  -3   2   0 311.270 1.97063
  -2   2   0 54.9420 0.52510
  -1   2   0 18.8864 0.26427
   0   2   0 5954.63 41.6772
   1   2   0 228.307 1.08179
   2   2   0 244.677 1.28603
   3   2   0 90.7241 0.72444
   4   2   0 42.3967 0.54973
   5   2   0 138.525 1.22472
   6   2   0 5.49169 0.35049
   7   2   0 54.5695 1.07455
   8   2   0 10.6637 2.50365
   9   2   0 6.86982 0.90539
  10   2   0 114.251 3.06209
  -9   3   0 128.628 2.74544
  -8   3   0 5.31033 0.98866
  -7   3   0 18.5122 0.91382
  -6   3   0 26.8415 0.98639
  -5   3   0 267.111 2.09834
  -4   3   0 163.205 1.42712
  -3   3   0 159.688 1.86876
  -2   3   0 7.76760 0.27151
  -1   3   0 872.350 3.92636
   0   3   0 79.6399 0.95596
   1   3   0 416.996 2.02739
   2   3   0 516.319 2.46012
   3   3   0 227.917 1.63249
   4   3   0 6.60717 0.25125
   5   3   0 117.274 1.27132
   6   3   0 12.3454 0.65286
   7   3   0 62.8065 1.28728
   8   3   0 512.714 5.33145
   9   3   0 1.20080 0.61094
  10   3   0 10.3136 1.17820
  -9   4   0 12.0670 1.12142
  -8   4   0 64.5355 2.18270
  -7   4   0 4.93786 0.62037
  -6   4   0 18.6301 0.87270
  -5   4   0 57.5605 1.16692
  -4   4   0 12.0411 0.47864
  -3   4   0 343.255 2.40157
  -2   4   0 12.5001 0.39297
  -1   4   0 5.55546 0.25735
   0   4   0 167.258 1.80120
   1   4   0 113.767 0.94379
   2   4   0 121.228 1.03003
   3   4   0 1288.24 6.52759
   4   4   0 180.139 1.39945
   5   4   0 16.3403 0.56721
   6   4   0 0.34275 0.25841
   7   4   0 14.1440 0.73602
   8   4   0 51.6324 1.42187
   9   4   0 7.40200 0.84588
  10   4   0 0.42889 0.71549
  -8   5   0 76.8796 2.10205
  -7   5   0 48.5946 1.55998
  -6   5   0 10.0424 0.77659
  -5   5   0 2.86981 0.52554
  -4   5   0 110.451 1.28749
  -3   5   0 270.990 2.82607
  -2   5   0 14.1484 0.46982
  -1   5   0 4.65355 0.27082
   0   5   0 179.530 2.01420
   1   5   0 76.9207 0.88229
   2   5   0 102.897 1.02119
   3   5   0 2.19304 0.39969
   4   5   0 3.71826 0.29046
   5   5   0 1.64534 0.35795
   6   5   0 47.6107 1.14858
   7   5   0 58.4829 1.36750
   8   5   0 123.067 2.20079
   9   5   0 24.3496 1.30734
  10   5   0 6.68975 1.09658
  -8   6   0 0.42743 0.81026
  -7   6   0 54.6649 1.81816
  -6   6   0 61.4951 1.63153
  -5   6   0 95.3204 1.91591
  -4   6   0 218.108 2.19264
  -3   6   0 89.6561 1.37891
  -2   6   0 82.4550 1.10246
  -1   6   0 26.0035 0.66060
   0   6   0 84.2650 1.48475
   1   6   0 116.148 1.21284
   2   6   0 304.259 2.26093
   3   6   0 318.701 3.15586
   4   6   0 24.3652 0.69198
   5   6   0 44.9666 1.15213
   6   6   0 33.5742 1.04289
   7   6   0 0.19457 0.33171
   8   6   0 21.4052 1.05279
   9   6   0 5.16831 0.79682
  -7   7   0 6.97332 0.94805
  -6   7   0 6.61003 0.78568
  -5   7   0 5.46996 0.86795
  -4   7   0 44.1468 1.07574
  -3   7   0 14.0392 1.22537
  -2   7   0 57.1348 1.04736
  -1   7   0 0.48372 0.22197
   0   7   0 327.696 3.72855
   1   7   0 8.37662 0.46916
   2   7   0 76.6498 1.17796
   3   7   0 26.4289 1.30035
   4   7   0 3.60818 0.38457
   5   7   0 58.5371 1.27097
   6   7   0 18.5290 0.87373
   7   7   0 176.492 2.40957
   8   7   0 54.6630 1.86275
   9   7   0 2.14203 0.68346
  -6   8   0 7.31919 1.03958
  -5   8   0 117.020 2.72482
  -4   8   0 11.2045 0.76496
  -3   8   0 3.01185 0.67730
  -2   8   0 557.428 4.02010
  -1   8   0 6.87348 0.47229
   0   8   0 336.527 4.08501
   1   8   0 143.048 1.74293
   2   8   0 33.2704 0.93589
   3   8   0 133.421 1.99534
   4   8   0 175.205 2.16558
   5   8   0 132.792 2.23884
   6   8   0 156.629 2.28393
   7   8   0 9.10760 0.75538
   8   8   0 9.29752 1.49332
  -5   9   0 10.0472 2.17356
  -4   9   0 90.4207 2.39869
  -3   9   0 39.7127 1.60525
  -2   9   0 20.5477 0.91641
  -1   9   0 0.40851 0.29724
   0   9   0 4.81756 0.55030
   1   9   0 0.60779 0.31379
   2   9   0 2.33868 0.37335
   3   9   0 16.1764 0.87860
   4   9   0 38.1257 1.23584
   5   9   0 10.6853 1.01916
   6   9   0 21.1407 1.07122
   7   9   0 190.000 3.00055
   8   9   0 1.55626 0.83379
  -4  10   0 0.71074 1.14971
  -3  10   0 4.49413 1.87906
  -2  10   0 18.8270 1.31897
  -1  10   0 1.11623 0.54180
   0  10   0 7.66054 0.89015
   1  10   0 6.87575 0.60923
   2  10   0 0.46753 0.35519
   3  10   0 33.5074 1.58428
   4  10   0 1.79794 0.53703
   5  10   0 2.08569 1.77287
   6  10   0 48.4301 1.91228
   7  10   0 26.1732 1.40835
  -2  11   0 3.75684 0.98594
  -1  11   0 43.7693 2.24682
   0  11   0 2.01936 1.08774
   1  11   0 3.53711 0.84138
   2  11   0 18.9056 1.42169
   3  11   0 30.0054 2.10084
   4  11   0 10.4769 1.27093
   5  11   0 21.4544 1.90214
   1  12   0 57.4653 4.92254
   2  12   0 2.00540 1.09059
  -5 -11   1 15.2715 1.58009
  -4 -11   1 0.41852 0.66322
  -3 -11   1 0.00000 2.06386
  -2 -11   1 54.3559 2.34675
  -1 -11   1 64.0209 2.59364
   0 -11   1 63.9078 2.59178
   1 -11   1 67.6039 2.80972
   2 -11   1 0.00000 1.52392
  -6 -10   1 12.8284 1.63517
  -5 -10   1 75.3030 2.17958
  -4 -10   1 1.79061 0.59785
  -3 -10   1 13.8199 1.65436
  -2 -10   1 71.8571 1.93410
  -1 -10   1 53.5691 2.37172
   0 -10   1 10.6841 0.88931
   1 -10   1 0.31284 0.53221
   2 -10   1 0.00000 1.33231
   3 -10   1 3.57554 0.97893
   4 -10   1 1.11080 1.25681
  -7  -9   1 7.78303 0.81330
  -6  -9   1 66.1249 1.82486
  -5  -9   1 3.24656 0.58468
  -4  -9   1 34.8663 1.30595
  -3  -9   1 31.9556 1.43661
  -2  -9   1 78.9049 1.48049
  -1  -9   1 50.2187 1.40943
   0  -9   1 167.712 2.03906
   1  -9   1 27.5000 1.10894
   2  -9   1 24.9211 1.54396
   3  -9   1 253.194 3.95819
   4  -9   1 12.9575 1.31346
   5  -9   1 3.13642 1.82863
  -8  -8   1 87.0583 2.07028
  -7  -8   1 16.9643 0.97645
  -6  -8   1 114.715 2.03953
  -5  -8   1 4.40281 0.51662
  -4  -8   1 8.25896 0.59737
  -3  -8   1 110.321 3.02919
  -2  -8   1 4.28469 0.44298
  -1  -8   1 0.36446 0.54540
   0  -8   1 72.8155 1.23998
   1  -8   1 66.1473 1.12938
   2  -8   1 9.84204 1.10519
   3  -8   1 45.8628 1.11768
   4  -8   1 75.7321 1.69298
   5  -8   1 14.2911 1.75290
   6  -8   1 0.82009 0.86946
  -9  -7   1 0.19531 0.98398
  -8  -7   1 15.5673 0.96787
  -7  -7   1 59.2564 1.55484
  -6  -7   1 251.792 3.23022
  -5  -7   1 1.09377 0.33766
  -4  -7   1 155.015 1.80931
  -3  -7   1 288.411 3.03164
  -2  -7   1 377.750 3.09171
  -1  -7   1 54.7489 1.47670
   0  -7   1 210.572 1.97177
   1  -7   1 46.8067 0.89613
   2  -7   1 333.202 3.11884
   3  -7   1 4.97409 0.42302
   4  -7   1 11.0070 0.63512
   5  -7   1 23.6564 1.16216
   6  -7   1 0.76361 0.55863
   7  -7   1 4.31232 1.61174
  -9  -6   1 24.1682 1.84040
  -8  -6   1 10.3228 0.79205
  -7  -6   1 2.93327 0.49075
  -6  -6   1 71.4510 1.41377
  -5  -6   1 92.7216 1.33347
  -4  -6   1 130.606 1.50771
  -3  -6   1 16.9665 0.61949
  -2  -6   1 375.766 2.75680
  -1  -6   1 69.2313 1.54104
   0  -6   1 24.0484 0.65610
   1  -6   1 6.31343 0.34565
   2  -6   1 300.124 2.79627
   3  -6   1 0.89999 0.24274
   4  -6   1 0.27232 0.25773
   5  -6   1 373.860 4.03143
   6  -6   1 49.5797 1.56044
   7  -6   1 52.2933 2.29030
   8  -6   1 0.51110 0.68610
  -9  -5   1 22.2899 1.23850
  -8  -5   1 42.8179 1.39771
  -7  -5   1 0.15996 0.29988
  -6  -5   1 149.470 1.93759
  -5  -5   1 4.93829 0.36001
  -4  -5   1 12.3621 0.49316
  -3  -5   1 36.5479 0.81839
  -2  -5   1 61.7638 0.82336
  -1  -5   1 464.721 3.32982
   0  -5   1 87.2284 0.93518
   1  -5   1 286.678 1.90447
   2  -5   1 237.043 2.03238
   3  -5   1 30.0811 0.66913
   4  -5   1 110.145 1.34694
   5  -5   1 4.59064 0.55787
   6  -5   1 68.8994 1.59813
   7  -5   1 52.8181 1.88301
   8  -5   1 78.0629 2.12348
 -10  -4   1 12.4971 1.35027
  -9  -4   1 29.4523 1.43057
  -8  -4   1 112.170 2.00668
  -7  -4   1 83.8426 1.57686
  -6  -4   1 101.657 1.64881
  -5  -4   1 59.4735 0.89783
  -4  -4   1 41.4477 0.72375
  -3  -4   1 24.8804 0.57646
  -2  -4   1 115.270 1.01281
  -1  -4   1 1.39644 0.33242
   0  -4   1 50.9768 0.61912
   1  -4   1 721.390 3.70142
   2  -4   1 3.59332 0.51486
   3  -4   1 156.980 1.31169
   4  -4   1 243.083 1.83051
   5  -4   1 279.239 2.53500
   6  -4   1 15.9564 0.84339
   7  -4   1 17.5911 1.11908
   8  -4   1 266.522 3.54037
   9  -4   1 5.94832 0.90387
 -10  -3   1 145.824 3.57391
  -9  -3   1 3.10929 0.88125
  -8  -3   1 18.3265 1.02631
  -7  -3   1 50.5882 1.19747
  -6  -3   1 18.9202 0.94442
  -5  -3   1 71.7441 0.91861
  -4  -3   1 80.7246 0.89810
  -3  -3   1 1160.38 5.52404
  -2  -3   1 12.1342 0.32832
  -1  -3   1 451.394 2.32877
   0  -3   1 446.041 2.29996
   1  -3   1 1838.22 7.90682
   2  -3   1 270.561 3.06776
   3  -3   1 262.698 1.67803
   4  -3   1 19.1636 0.41982
   5  -3   1 52.2273 1.46343
   6  -3   1 189.579 2.29434
   7  -3   1 18.4819 1.20548
   8  -3   1 1.88387 0.54275
   9  -3   1 8.20674 0.96649
 -10  -2   1 2.58930 0.84362
  -9  -2   1 29.2995 3.04351
  -8  -2   1 7.93025 0.74342
  -7  -2   1 5.01943 0.44293
  -6  -2   1 2.02338 0.39527
  -5  -2   1 428.066 2.70345
  -4  -2   1 98.4400 0.98281
  -3  -2   1 44.4034 0.55499
  -2  -2   1 53.2250 0.53474
  -1  -2   1 8.01048 0.20070
   0  -2   1 11.9031 0.19705
   1  -2   1 234.578 1.14677
   2  -2   1 1.38420 0.26052
   3  -2   1 30.4913 0.40033
   4  -2   1 58.6875 0.72212
   5  -2   1 46.6364 1.37691
   6  -2   1 83.6690 1.51896
   7  -2   1 3.87145 0.70810
   8  -2   1 87.3426 2.00203
   9  -2   1 8.10492 0.92128
 -10  -1   1 7.45937 1.08628
  -9  -1   1 256.640 4.31059
  -8  -1   1 72.8680 1.80185
  -7  -1   1 99.8831 1.42350
  -6  -1   1 15.3079 0.63323
  -5  -1   1 181.675 1.46910
  -4  -1   1 7.24251 0.30127
  -3  -1   1 647.433 2.97535
  -2  -1   1 634.539 2.71948
  -1  -1   1 1059.26 3.78029
   0  -1   1 305.927 1.42680
   1  -1   1 186.267 0.85552
   2  -1   1 704.942 4.07056
   3  -1   1 2.32421 0.16826
   4  -1   1 2.11901 0.20346
   5  -1   1 0.57902 0.28870
   6  -1   1 22.4012 0.69983
   7  -1   1 0.81768 0.46931
   8  -1   1 1.21573 0.51342
   9  -1   1 42.4219 1.74358
  10  -1   1 16.4986 1.92579
 -10   0   1 9.12674 1.23643
  -9   0   1 0.94846 0.85926
  -8   0   1 2.34350 0.55089
  -7   0   1 11.1322 0.63952
  -6   0   1 0.22328 0.36979
  -5   0   1 138.504 1.28569
  -4   0   1 0.30474 0.14787
  -3   0   1 3.23317 0.18434
  -2   0   1 1294.47 4.80750
  -1   0   1 7.78866 0.15155
   0   0   1 10.0591 0.11048
   1   0   1 46.4204 0.32375
   2   0   1 1165.23 6.17805
   3   0   1 91.3733 0.74827
   4   0   1 95.2514 0.88909
   5   0   1 669.195 3.86805
   6   0   1 80.5492 1.11900
   7   0   1 6.96765 0.63287
   8   0   1 1.19658 0.46358
   9   0   1 6.85970 0.86750
  10   0   1 25.0369 2.09411
 -10   1   1 38.4335 2.20895
  -9   1   1 14.8604 1.32535
  -8   1   1 85.6352 1.94712
  -7   1   1 240.615 2.70823
  -6   1   1 89.2889 1.30820
  -5   1   1 85.0291 1.01733
  -4   1   1 75.3383 0.87332
  -3   1   1 158.848 1.11298
  -2   1   1 3924.62 14.5401
  -1   1   1 192.563 0.96050
   0   1   1 911.646 3.77143
   1   1   1 1071.54 3.96961
   2   1   1 235.258 3.63107
   3   1   1 584.008 2.57570
   4   1   1 349.977 1.90600
   5   1   1 0.35257 0.13091
   6   1   1 56.0780 0.75076
   7   1   1 14.1462 0.75175
   8   1   1 21.7896 1.12760
   9   1   1 5.19605 0.81333
  10   1   1 81.1448 2.82103
  -9   2   1 0.00000 1.00703
  -8   2   1 0.46301 0.43766
  -7   2   1 226.241 2.75069
  -6   2   1 65.3255 1.56709
  -5   2   1 1.01670 0.22192
  -4   2   1 119.312 1.17135
  -3   2   1 61.2199 0.73300
  -2   2   1 14.8379 0.33258
  -1   2   1 208.365 1.10465
   0   2   1 2965.56 10.7576
   1   2   1 795.448 3.05499
   2   2   1 54.6493 2.16484
   3   2   1 191.464 1.34344
   4   2   1 429.581 2.45975
   5   2   1 6.25841 0.43384
   6   2   1 9.48931 0.44831
   7   2   1 10.5471 0.57830
   8   2   1 11.5411 0.92430
   9   2   1 43.3762 1.85881
  10   2   1 185.357 4.81937
  -9   3   1 61.8908 2.22358
  -8   3   1 10.1635 0.82523
  -7   3   1 43.2779 1.34772
  -6   3   1 5.57206 1.24020
  -5   3   1 0.54633 0.21560
  -4   3   1 73.2918 0.97081
  -3   3   1 24.2792 0.56685
  -2   3   1 578.432 3.02499
  -1   3   1 46.1869 0.71311
   0   3   1 48.6139 0.51819
   1   3   1 1058.57 4.37806
   2   3   1 39.2954 0.46041
   3   3   1 470.379 2.65406
   4   3   1 796.568 4.67323
   5   3   1 38.7448 0.79962
   6   3   1 0.29699 0.19459
   7   3   1 58.1072 1.22032
   8   3   1 12.1021 0.83671
   9   3   1 0.63396 0.54845
  10   3   1 24.0695 2.23005
  -9   4   1 12.8426 1.21759
  -8   4   1 0.64387 0.49248
  -7   4   1 4.54080 0.60349
  -6   4   1 3.36289 1.05493
  -5   4   1 43.4628 0.94570
  -4   4   1 1.34888 0.25106
  -3   4   1 371.427 2.53190
  -2   4   1 240.217 1.74529
  -1   4   1 64.7884 0.76466
   0   4   1 13.4306 0.37838
   1   4   1 1592.53 7.28082
   2   4   1 661.267 4.82218
   3   4   1 15.8219 0.35933
   4   4   1 187.499 1.53569
   5   4   1 211.577 2.25423
   6   4   1 581.109 4.44015
   7   4   1 10.8325 0.70410
   8   4   1 208.233 2.92248
   9   4   1 25.4114 1.38742
  10   4   1 49.1379 2.37662
  -8   5   1 8.20317 0.88567
  -7   5   1 56.4204 1.64464
  -6   5   1 29.0617 2.38158
  -5   5   1 283.911 2.68255
  -4   5   1 0.20450 0.21110
  -3   5   1 0.51573 0.24661
  -2   5   1 140.375 1.36536
  -1   5   1 52.2045 2.02755
   0   5   1 81.2577 0.96403
   1   5   1 1550.63 7.23932
   2   5   1 77.3914 0.91798
   3   5   1 6.63420 0.31620
   4   5   1 114.986 1.20850
   5   5   1 303.609 2.50439
   6   5   1 8.13580 0.57443
   7   5   1 501.597 4.27816
   8   5   1 12.2404 0.79794
   9   5   1 0.61214 0.49892
  10   5   1 46.6969 2.26057
  -8   6   1 25.8669 1.50519
  -7   6   1 14.2791 1.06934
  -6   6   1 3.57739 1.54857
  -5   6   1 3.63814 0.47179
  -4   6   1 84.2242 1.35715
  -3   6   1 125.196 2.04115
  -2   6   1 227.860 2.15730
  -1   6   1 123.017 1.61449
   0   6   1 46.3427 0.83218
   1   6   1 60.8529 0.84640
   2   6   1 43.7761 1.66280
   3   6   1 10.1685 0.45793
   4   6   1 11.0510 0.46058
   5   6   1 2.47212 0.70721
   6   6   1 103.825 1.65961
   7   6   1 147.650 2.16702
   8   6   1 1.33113 0.46438
   9   6   1 17.6618 1.18450
  -7   7   1 2.91900 0.75251
  -6   7   1 0.72556 1.29340
  -5   7   1 98.1338 1.79827
  -4   7   1 28.1079 0.94416
  -3   7   1 524.410 4.70341
  -2   7   1 11.6915 0.57057
  -1   7   1 77.9948 1.42935
   0   7   1 233.080 2.04668
   1   7   1 3.23357 0.32379
   2   7   1 77.1215 2.25259
   3   7   1 12.8001 0.57700
   4   7   1 0.58611 0.25554
   5   7   1 0.58776 0.56279
   6   7   1 29.1624 1.04050
   7   7   1 15.4838 0.95729
   8   7   1 18.1265 1.02385
   9   7   1 2.78326 0.70869
  -6   8   1 33.5811 1.71877
  -5   8   1 23.9233 1.29495
  -4   8   1 146.406 2.23192
  -3   8   1 73.9888 1.55246
  -2   8   1 96.4770 1.45319
  -1   8   1 0.70623 0.45921
   0   8   1 122.961 1.58270
   1   8   1 167.450 1.83728
   2   8   1 77.8177 2.47598
   3   8   1 302.777 2.70454
   4   8   1 54.7443 1.31220
   5   8   1 47.9480 2.74322
   6   8   1 42.0376 1.29835
   7   8   1 68.6349 1.98592
   8   8   1 8.95368 0.78860
   9   8   1 0.32020 0.74341
  -5   9   1 3.06109 0.84790
  -4   9   1 27.8177 1.36507
  -3   9   1 72.5813 1.81607
  -2   9   1 93.6451 1.61012
  -1   9   1 22.1926 1.13212
   0   9   1 12.6518 0.66341
   1   9   1 65.8557 1.29461
   2   9   1 124.326 1.78162
   3   9   1 35.9150 1.04755
   4   9   1 9.20195 0.70528
   5   9   1 3.92828 1.08500
   6   9   1 11.1339 0.82828
   7   9   1 135.913 2.75029
   8   9   1 16.6645 1.13712
  -4  10   1 0.49200 0.84191
  -3  10   1 78.7626 2.82739
  -2  10   1 1.22255 0.52166
  -1  10   1 77.8855 1.93632
   0  10   1 3.51332 0.55489
   1  10   1 1.11253 0.44364
   2  10   1 81.5996 1.76053
   3  10   1 37.8680 1.41594
   4  10   1 8.78576 0.82531
   5  10   1 3.21000 1.16762
   6  10   1 3.85038 0.74236
   7  10   1 5.51652 1.36606
  -2  11   1 42.7833 2.17778
  -1  11   1 4.00580 1.87681
   0  11   1 21.6524 1.41651
   1  11   1 2.33623 0.66506
   2  11   1 39.8317 1.49495
   3  11   1 3.33104 0.70346
   4  11   1 33.3160 1.68219
   5  11   1 2.77291 1.16560
   6  11   1 1.90985 0.88284
   1  12   1 0.62048 0.74155
   2  12   1 8.69161 1.46022
   3  12   1 4.00299 1.01928
  -4 -11   2 0.00000 2.25032
  -3 -11   2 39.5263 2.03798
  -2 -11   2 64.4631 2.26890
  -1 -11   2 2.79522 1.55348
   0 -11   2 12.0112 1.29019
   1 -11   2 8.49934 1.81829
  -6 -10   2 37.5097 2.03426
  -5 -10   2 10.4516 1.17337
  -4 -10   2 4.93143 3.11002
  -3 -10   2 1.09953 0.55370
  -2 -10   2 2.72542 0.63893
  -1 -10   2 2.05046 1.29243
   0 -10   2 1.08784 0.53698
   1 -10   2 1.32860 1.34990
   2 -10   2 20.1936 1.36500
   3 -10   2 31.4561 1.97386
  -7  -9   2 58.0773 1.93330
  -6  -9   2 1.34948 0.51892
  -5  -9   2 24.8301 1.20253
  -4  -9   2 11.4967 1.13927
  -3  -9   2 4.92123 0.58362
  -2  -9   2 0.74923 0.44261
  -1  -9   2 61.8311 3.12693
   0  -9   2 30.0020 1.20037
   1  -9   2 23.2796 1.27023
   2  -9   2 16.9048 1.07116
   3  -9   2 25.6246 1.54605
   4  -9   2 2.74738 2.19831
   5  -9   2 18.8004 2.25857
  -8  -8   2 2.28959 0.62097
  -7  -8   2 2.43853 0.97372
  -6  -8   2 7.07709 0.68058
  -5  -8   2 165.637 2.23004
  -4  -8   2 45.1196 1.31895
  -3  -8   2 129.858 1.82716
  -2  -8   2 13.8439 0.68504
  -1  -8   2 65.4163 1.43772
   0  -8   2 0.46245 0.24189
   1  -8   2 205.373 2.58794
   2  -8   2 33.4881 1.12715
   3  -8   2 6.78590 0.66866
   4  -8   2 36.9715 1.98421
   5  -8   2 74.5561 2.95197
   6  -8   2 16.1175 1.91418
  -8  -7   2 5.78883 0.73434
  -7  -7   2 12.3033 0.90373
  -6  -7   2 266.655 2.92087
  -5  -7   2 120.157 1.70885
  -4  -7   2 273.810 2.86938
  -3  -7   2 6.77261 0.49940
  -2  -7   2 161.544 1.77385
  -1  -7   2 63.2592 1.75236
   0  -7   2 77.6487 1.11954
   1  -7   2 169.056 2.14036
   2  -7   2 1.84372 0.28961
   3  -7   2 20.3136 0.75067
   4  -7   2 13.7881 0.99684
   5  -7   2 30.9033 1.51732
   6  -7   2 0.41300 0.71801
   7  -7   2 38.0515 3.11231
  -9  -6   2 17.9534 1.28711
  -8  -6   2 0.97787 0.46339
  -7  -6   2 6.48704 1.12518
  -6  -6   2 48.6403 1.25893
  -5  -6   2 71.0731 1.24494
  -4  -6   2 241.914 2.46435
  -3  -6   2 89.7790 1.20272
  -2  -6   2 63.9602 1.02402
  -1  -6   2 40.8294 1.01960
   0  -6   2 21.1576 0.56390
   1  -6   2 28.8361 1.19463
   2  -6   2 1.71869 0.24742
   3  -6   2 38.0812 0.77766
   4  -6   2 230.739 2.33265
   5  -6   2 84.7452 1.63514
   6  -6   2 65.0672 1.74191
   7  -6   2 19.5366 1.53590
   8  -6   2 0.73295 0.90340
  -9  -5   2 35.3575 1.60327
  -8  -5   2 214.248 2.79265
  -7  -5   2 123.376 1.97524
  -6  -5   2 79.3316 1.34149
  -5  -5   2 179.963 1.85708
  -4  -5   2 8.21105 0.90242
  -3  -5   2 35.0533 0.71768
  -2  -5   2 13.6440 0.46153
  -1  -5   2 70.7813 0.89152
   0  -5   2 2.24701 0.20871
   1  -5   2 215.934 1.92181
   2  -5   2 66.3758 0.81755
   3  -5   2 12.9336 0.48572
   4  -5   2 27.0046 1.02645
   5  -5   2 277.714 2.67918
   6  -5   2 0.41300 0.38112
   7  -5   2 16.2860 1.17014
   8  -5   2 35.4571 1.61650
 -10  -4   2 16.9801 2.13217
  -9  -4   2 13.9006 1.04515
  -8  -4   2 128.921 2.19478
  -7  -4   2 7.51602 0.81288
  -6  -4   2 74.9847 1.19881
  -5  -4   2 18.2260 0.59510
  -4  -4   2 1.25789 0.36443
  -3  -4   2 190.554 1.56228
  -2  -4   2 487.581 2.70491
  -1  -4   2 3.79236 0.21963
   0  -4   2 319.404 1.95577
   1  -4   2 185.426 1.75803
   2  -4   2 111.792 0.96801
   3  -4   2 121.073 1.19156
   4  -4   2 161.567 1.51005
   5  -4   2 175.568 1.95153
   6  -4   2 26.1934 1.04052
   7  -4   2 224.916 2.98699
   8  -4   2 85.3539 2.11967
   9  -4   2 69.5316 2.89993
 -10  -3   2 0.62934 0.99500
  -9  -3   2 160.408 3.10103
  -8  -3   2 2.56053 0.52960
  -7  -3   2 180.230 2.81911
  -6  -3   2 92.0160 1.25183
  -5  -3   2 888.605 4.98255
  -4  -3   2 33.7912 0.67937
  -3  -3   2 759.780 4.12260
  -2  -3   2 227.037 1.46117
  -1  -3   2 16.5650 0.34981
   0  -3   2 9.47588 0.21001
   1  -3   2 12.3070 0.26975
   2  -3   2 35.1973 0.49229
   3  -3   2 0.22393 0.11772
   4  -3   2 9.22414 0.92038
   5  -3   2 28.8131 0.70420
   6  -3   2 0.86031 0.33936
   7  -3   2 8.95473 1.18547
   8  -3   2 44.7200 1.52969
   9  -3   2 7.86145 1.14867
 -10  -2   2 50.3766 2.44500
  -9  -2   2 190.999 3.55492
  -8  -2   2 39.1933 1.47633
  -7  -2   2 72.2934 1.31047
  -6  -2   2 5.61703 0.39565
  -5  -2   2 39.9812 0.75965
  -4  -2   2 0.90070 0.30636
  -3  -2   2 310.682 1.91696
  -2  -2   2 148.809 1.02817
  -1  -2   2 81.4043 0.61342
   0  -2   2 858.574 3.58967
   1  -2   2 75.8781 0.54527
   2  -2   2 2.68954 0.14552
   3  -2   2 834.015 4.06902
   4  -2   2 79.6582 1.13222
   5  -2   2 190.457 2.14539
   6  -2   2 20.6917 0.85471
   7  -2   2 160.632 2.29369
   8  -2   2 0.27728 0.43076
   9  -2   2 46.7621 1.88267
 -10  -1   2 23.1312 1.93830
  -9  -1   2 24.4149 1.51168
  -8  -1   2 0.47529 0.38150
  -7  -1   2 206.509 2.99150
  -6  -1   2 31.9870 0.75786
  -5  -1   2 10.7945 0.43222
  -4  -1   2 136.727 1.76010
  -3  -1   2 209.186 1.40826
  -2  -1   2 70.5805 0.61786
  -1  -1   2 137.340 0.79362
   0  -1   2 5.88006 0.12913
   1  -1   2 755.506 3.26051
   2  -1   2 54.7662 0.45107
   3  -1   2 46.5059 0.56593
   4  -1   2 4.29167 0.67826
   5  -1   2 591.216 4.30672
   6  -1   2 465.390 3.85889
   7  -1   2 1.88488 0.61346
   8  -1   2 92.8527 2.08605
   9  -1   2 65.8431 2.12919
  10  -1   2 1.95056 0.79693
 -10   0   2 67.4498 2.56636
  -9   0   2 22.1376 1.39238
  -8   0   2 35.3945 1.41657
  -7   0   2 9.15985 0.98560
  -6   0   2 41.3807 0.85556
  -5   0   2 0.57727 0.19379
  -4   0   2 236.280 2.08664
  -3   0   2 158.765 1.14989
  -2   0   2 787.061 3.34872
  -1   0   2 2746.25 9.69894
   0   0   2 4.77850 0.13125
   1   0   2 4305.22 15.7662
   2   0   2 39.9665 0.41649
   3   0   2 5.93538 0.17466
   4   0   2 11.4378 1.40404
   5   0   2 150.761 1.37314
   6   0   2 10.5160 0.50280
   7   0   2 95.4188 1.72476
   8   0   2 5.16032 0.64739
   9   0   2 49.9621 1.95910
  10   0   2 96.8225 2.99239
  -9   1   2 1.12189 0.62202
  -8   1   2 117.625 2.22507
  -7   1   2 130.809 2.66497
  -6   1   2 158.213 1.66542
  -5   1   2 0.33449 0.19285
  -4   1   2 4.00260 0.33062
  -3   1   2 205.145 1.39181
  -2   1   2 5420.15 21.1022
  -1   1   2 9999.99 36.8327
   0   1   2 42.0975 0.32925
   1   1   2 1653.96 6.30788
   2   1   2 4155.48 15.9934
   3   1   2 538.997 2.54449
   4   1   2 8.68838 0.29197
   5   1   2 71.3874 0.71865
   6   1   2 1.30279 0.23394
   7   1   2 51.4391 1.40271
   8   1   2 3.68637 0.59516
   9   1   2 8.19008 1.24360
  10   1   2 0.73078 0.69944
  -9   2   2 8.55539 0.96625
  -8   2   2 1.48761 0.52574
  -7   2   2 17.4501 0.96332
  -6   2   2 0.46518 0.26025
  -5   2   2 1.84328 0.28080
  -4   2   2 4.44544 0.52470
  -3   2   2 2.03369 0.20949
  -2   2   2 41.4446 0.55190
  -1   2   2 65.3609 0.56892
   0   2   2 1958.35 7.86295
   1   2   2 6458.88 23.2518
   2   2   2 345.223 1.72872
   3   2   2 2.78266 0.15476
   4   2   2 387.404 2.55678
   5   2   2 10.4116 0.38456
   6   2   2 17.6509 0.58204
   7   2   2 85.4652 1.77925
   8   2   2 347.224 4.47628
   9   2   2 2.97361 0.86427
  10   2   2 1.82655 0.85654
  -9   3   2 2.12758 0.70968
  -8   3   2 24.4886 1.18602
  -7   3   2 7.04742 1.50203
  -6   3   2 5.30994 0.45255
  -5   3   2 55.7037 0.99924
  -4   3   2 5.91234 0.41705
  -3   3   2 121.456 1.20724
  -2   3   2 13.5925 0.37705
  -1   3   2 155.556 1.08809
   0   3   2 15.2271 0.26089
   1   3   2 778.218 3.32588
   2   3   2 99.2498 0.78465
   3   3   2 89.6738 0.88269
   4   3   2 45.1454 0.83924
   5   3   2 0.36149 0.19686
   6   3   2 36.0527 0.84914
   7   3   2 1.35957 0.83249
   8   3   2 191.477 2.73715
   9   3   2 151.051 3.08705
  10   3   2 5.81349 1.00661
  -9   4   2 1.66603 0.79231
  -8   4   2 45.3362 1.62499
  -7   4   2 62.6908 1.53162
  -6   4   2 9.80003 0.61647
  -5   4   2 0.32747 0.24249
  -4   4   2 88.3900 1.27004
  -3   4   2 90.6155 1.11949
  -2   4   2 267.620 1.89071
  -1   4   2 0.34276 0.14172
   0   4   2 747.523 3.64934
   1   4   2 1.22810 0.22436
   2   4   2 207.946 1.43962
   3   4   2 116.260 1.00317
   4   4   2 48.5600 1.16353
   5   4   2 81.7938 1.22570
   6   4   2 122.979 1.66075
   7   4   2 40.9510 1.09038
   8   4   2 53.6022 1.58300
   9   4   2 5.16838 1.01463
  10   4   2 2.54213 0.80742
  -8   5   2 2.93538 0.71594
  -7   5   2 6.53501 0.89753
  -6   5   2 0.50874 0.38290
  -5   5   2 49.4156 1.14001
  -4   5   2 23.5332 1.65738
  -3   5   2 23.7832 0.69853
  -2   5   2 84.5451 1.04108
  -1   5   2 3.79899 0.37260
   0   5   2 59.0764 0.75491
   1   5   2 192.558 2.20988
   2   5   2 256.448 1.77816
   3   5   2 341.686 2.20320
   4   5   2 110.531 1.38493
   5   5   2 59.1009 0.97564
   6   5   2 24.5622 0.86592
   7   5   2 4.99233 1.18438
   8   5   2 5.36729 0.61528
   9   5   2 4.73569 1.08291
  10   5   2 9.83233 1.19717
  -8   6   2 0.63478 0.62624
  -7   6   2 22.1291 1.33427
  -6   6   2 29.8204 1.24476
  -5   6   2 22.1648 0.88852
  -4   6   2 11.2807 1.80727
  -3   6   2 65.4923 1.11528
  -2   6   2 9.73241 0.49501
  -1   6   2 119.755 1.49118
   0   6   2 337.499 2.43239
   1   6   2 99.2606 1.92377
   2   6   2 0.42901 0.19249
   3   6   2 9.65807 0.43191
   4   6   2 18.8473 1.29085
   5   6   2 514.024 3.65041
   6   6   2 5.05355 0.49019
   7   6   2 113.568 1.96139
   8   6   2 10.3945 0.78307
   9   6   2 8.58598 1.21527
  10   6   2 6.06401 1.54580
  -7   7   2 1.10079 1.46313
  -6   7   2 2.11689 0.63649
  -5   7   2 8.59304 0.71537
  -4   7   2 14.6967 1.09016
  -3   7   2 31.5027 0.97435
  -2   7   2 75.4181 1.22166
  -1   7   2 269.978 2.60931
   0   7   2 227.590 2.01570
   1   7   2 231.809 2.26534
   2   7   2 70.8762 1.06013
   3   7   2 27.5906 0.78340
   4   7   2 97.3051 1.53710
   5   7   2 35.1795 1.02571
   6   7   2 0.33708 0.32103
   7   7   2 11.0942 1.52578
   8   7   2 15.8962 0.98528
   9   7   2 3.55150 1.10123
  -6   8   2 40.7468 1.85744
  -5   8   2 11.6344 1.01607
  -4   8   2 27.0545 1.17321
  -3   8   2 0.72511 0.36407
  -2   8   2 0.66427 0.30929
  -1   8   2 49.8984 1.46996
   0   8   2 42.7796 1.08942
   1   8   2 129.067 2.46855
   2   8   2 109.733 1.48868
   3   8   2 6.30835 0.48485
   4   8   2 0.00000 1.80410
   5   8   2 34.3231 1.16744
   6   8   2 54.2193 1.51002
   7   8   2 9.87730 1.17549
   8   8   2 94.5319 2.02488
   9   8   2 16.9728 1.93537
  -5   9   2 42.6411 2.04970
  -4   9   2 249.784 3.97815
  -3   9   2 91.2150 1.80993
  -2   9   2 53.3894 1.47181
  -1   9   2 285.429 3.47832
   0   9   2 19.1513 0.86030
   1   9   2 35.3017 1.98454
   2   9   2 146.195 1.98624
   3   9   2 115.344 1.75080
   4   9   2 32.3816 1.29373
   5   9   2 2.06413 0.51232
   6   9   2 25.1657 1.28786
   7   9   2 3.47574 1.20520
   8   9   2 252.526 3.59353
  -4  10   2 110.798 3.38575
  -3  10   2 0.40030 0.48324
  -2  10   2 17.0298 1.00696
  -1  10   2 25.4596 1.19550
   0  10   2 5.07744 0.61726
   1  10   2 0.78834 0.87900
   2  10   2 2.97047 0.54598
   3  10   2 45.1542 1.54566
   4  10   2 73.3245 2.06955
   5  10   2 6.71715 0.86985
   6  10   2 70.8735 2.33795
   7  10   2 52.6424 2.41649
  -2  11   2 14.2208 1.28077
  -1  11   2 5.69568 1.16196
   0  11   2 46.2933 1.57025
   1  11   2 20.5031 1.15739
   2  11   2 3.38332 0.65020
   3  11   2 21.3727 1.28961
   4  11   2 53.4249 1.92089
   5  11   2 0.60266 0.63256
   6  11   2 25.3146 1.80058
   0  12   2 7.11411 1.07247
   1  12   2 12.5336 1.68542
   2  12   2 2.03225 0.81084
   3  12   2 21.6721 1.55858
  -3 -11   3 61.1559 2.57098
  -2 -11   3 25.0863 1.75005
  -1 -11   3 98.3662 2.59352
   0 -11   3 3.03779 0.94503
   1 -11   3 9.21459 2.06368
  -5 -10   3 0.00000 1.19963
  -4 -10   3 30.4249 1.67752
  -3 -10   3 25.8636 1.37335
  -2 -10   3 9.79215 1.58718
  -1 -10   3 95.7899 2.31915
   0 -10   3 79.2270 2.32183
   1 -10   3 0.00000 1.80048
   2 -10   3 1.12430 0.66001
   3 -10   3 27.0192 2.39352
  -7  -9   3 2.18865 0.69620
  -6  -9   3 5.58904 0.87552
  -5  -9   3 2.06506 1.64335
  -4  -9   3 5.28999 0.79260
  -3  -9   3 67.7017 1.88092
  -2  -9   3 74.5943 2.16648
  -1  -9   3 102.100 2.00813
   0  -9   3 30.8751 1.41823
   1  -9   3 17.7250 1.75380
   2  -9   3 0.98331 0.53487
   3  -9   3 44.1786 2.32462
   4  -9   3 3.83830 1.15273
   5  -9   3 4.57766 1.79671
  -8  -8   3 5.53933 1.38428
  -7  -8   3 2.33911 0.58584
  -6  -8   3 3.67090 0.58662
  -5  -8   3 51.3076 1.39866
  -4  -8   3 6.99799 0.55799
  -3  -8   3 19.2919 0.82203
  -2  -8   3 22.1695 0.88308
  -1  -8   3 109.714 1.98528
   0  -8   3 6.78025 0.66838
   1  -8   3 2.43384 0.95715
   2  -8   3 231.213 3.05265
   3  -8   3 62.4415 1.91880
   4  -8   3 2.66398 0.73926
   5  -8   3 31.3246 2.34878
   6  -8   3 2.36326 3.58647
  -8  -7   3 0.79443 0.78135
  -7  -7   3 0.75664 0.45655
  -6  -7   3 49.8980 1.37095
  -5  -7   3 0.92801 0.55322
  -4  -7   3 332.199 2.93850
  -3  -7   3 29.0747 0.84361
  -2  -7   3 272.870 2.76000
  -1  -7   3 498.943 3.82704
   0  -7   3 41.8682 0.78191
   1  -7   3 258.684 2.89731
   2  -7   3 13.0590 0.68182
   3  -7   3 213.782 2.88571
   4  -7   3 97.9801 2.07310
   5  -7   3 19.0483 1.64176
   6  -7   3 3.89454 1.30829
   7  -7   3 13.1753 1.85061
  -9  -6   3 20.4847 1.45140
  -8  -6   3 0.99018 0.75427
  -7  -6   3 25.4687 1.07659
  -6  -6   3 245.109 2.71923
  -5  -6   3 212.310 2.38238
  -4  -6   3 234.976 2.19709
  -3  -6   3 1.81328 0.29520
  -2  -6   3 52.6401 1.30148
  -1  -6   3 238.062 1.98357
   0  -6   3 146.792 1.29460
   1  -6   3 200.067 1.65458
   2  -6   3 7.36593 0.36552
   3  -6   3 5.58523 0.53554
   4  -6   3 125.188 1.74819
   5  -6   3 32.7641 1.27365
   6  -6   3 43.6002 2.27085
   7  -6   3 6.43832 1.13389
  -9  -5   3 14.7292 1.16283
  -8  -5   3 0.68410 0.70267
  -7  -5   3 28.5467 1.08996
  -6  -5   3 56.0028 1.19570
  -5  -5   3 92.2707 1.41106
  -4  -5   3 74.6590 1.12899
  -3  -5   3 245.912 1.96211
  -2  -5   3 309.226 2.50554
  -1  -5   3 32.2190 0.56943
   0  -5   3 18.7789 0.52811
   1  -5   3 0.70824 0.24834
   2  -5   3 388.373 2.45782
   3  -5   3 0.34167 0.80426
   4  -5   3 48.8507 0.89128
   5  -5   3 42.6814 1.09542
   6  -5   3 5.69718 0.70328
   7  -5   3 70.9853 1.90645
   8  -5   3 1.57527 0.73214
  -9  -4   3 44.9031 1.83785
  -8  -4   3 14.3957 1.26484
  -7  -4   3 34.4171 1.14089
  -6  -4   3 98.3352 1.37424
  -5  -4   3 2.97885 0.62555
  -4  -4   3 53.4960 0.91779
  -3  -4   3 145.092 1.37815
  -2  -4   3 196.114 1.87853
  -1  -4   3 173.151 1.22731
   0  -4   3 236.810 1.41865
   1  -4   3 2.10131 0.16040
   2  -4   3 8.28645 0.28556
   3  -4   3 2.51209 0.36581
   4  -4   3 72.3458 0.93892
   5  -4   3 64.6698 1.14376
   6  -4   3 685.954 6.24016
   7  -4   3 105.607 2.12569
   8  -4   3 6.44896 0.83068
   9  -4   3 8.70826 1.40969
  -9  -3   3 5.44830 0.76227
  -8  -3   3 99.7370 2.03633
  -7  -3   3 15.6642 0.74150
  -6  -3   3 7.15479 0.43866
  -5  -3   3 18.3191 0.62124
  -4  -3   3 118.035 1.21712
  -3  -3   3 87.6484 0.98250
  -2  -3   3 47.2842 1.74521
  -1  -3   3 222.129 1.34699
   0  -3   3 625.959 3.49310
   1  -3   3 112.625 0.94905
   2  -3   3 3035.62 13.2979
   3  -3   3 6.65389 0.34438
   4  -3   3 1.31812 0.20235
   5  -3   3 18.2839 0.60841
   6  -3   3 333.257 4.60558
   7  -3   3 181.267 2.54384
   8  -3   3 13.9091 0.98681
   9  -3   3 22.7250 2.11846
 -10  -2   3 4.69078 1.84186
  -9  -2   3 133.987 3.08620
  -8  -2   3 1.46310 0.63125
  -7  -2   3 70.6674 1.28217
  -6  -2   3 0.37653 0.24263
  -5  -2   3 53.3887 0.94057
  -4  -2   3 308.490 2.15650
  -3  -2   3 28.1218 0.55473
  -2  -2   3 1323.58 8.16592
  -1  -2   3 68.2712 0.56426
   0  -2   3 820.408 3.89342
   1  -2   3 16.9310 0.28150
   2  -2   3 107.121 0.83758
   3  -2   3 20.0640 0.52072
   4  -2   3 0.53610 0.14387
   5  -2   3 20.9104 0.65825
   6  -2   3 4.98295 1.16370
   7  -2   3 4.40001 0.60448
   8  -2   3 19.8935 1.13453
   9  -2   3 10.7034 1.83432
 -10  -1   3 6.31788 1.94842
  -9  -1   3 1.31221 0.62967
  -8  -1   3 35.4116 1.46166
  -7  -1   3 14.0541 0.67852
  -6  -1   3 77.0096 1.17752
  -5  -1   3 28.2477 0.85618
  -4  -1   3 6.13656 0.34185
  -3  -1   3 14.6498 0.40484
  -2  -1   3 130.676 1.04844
  -1  -1   3 731.244 3.12982
   0  -1   3 227.825 1.15606
   1  -1   3 2.78221 0.13759
   2  -1   3 721.712 3.33055
   3  -1   3 52.3951 0.53320
   4  -1   3 9.13470 0.31378
   5  -1   3 224.644 2.41956
   6  -1   3 520.931 4.74118
   7  -1   3 277.237 3.05610
   8  -1   3 51.2370 1.65480
   9  -1   3 12.3729 1.24499
  10  -1   3 5.32434 1.02591
  -9   0   3 1.13870 0.62407
  -8   0   3 10.3992 0.90415
  -7   0   3 437.069 3.43566
  -6   0   3 11.9898 0.54589
  -5   0   3 40.8396 0.93085
  -4   0   3 4.10036 0.29290
  -3   0   3 41.0971 0.61305
  -2   0   3 259.812 1.84282
  -1   0   3 611.077 2.82774
   0   0   3 112.110 0.78228
   1   0   3 379.863 1.97698
   2   0   3 1274.32 5.41925
   3   0   3 50.3100 0.67657
   4   0   3 631.875 3.35591
   5   0   3 24.6926 0.64328
   6   0   3 132.889 2.48877
   7   0   3 5.37609 0.54749
   8   0   3 45.2033 1.50810
   9   0   3 5.78470 1.44934
  10   0   3 22.3608 1.61957
  -9   1   3 4.50762 0.76607
  -8   1   3 31.3440 1.54178
  -7   1   3 42.2317 1.11958
  -6   1   3 17.2583 0.67201
  -5   1   3 8.03098 0.73424
  -4   1   3 52.5818 0.78660
  -3   1   3 529.484 2.91883
  -2   1   3 60.2260 0.78638
  -1   1   3 7773.66 29.4900
   0   1   3 169.017 0.99041
   1   1   3 1364.73 5.76089
   2   1   3 98.5813 0.76791
   3   1   3 1229.81 5.75832
   4   1   3 0.71609 0.12948
   5   1   3 1.22113 0.15301
   6   1   3 576.247 4.34455
   7   1   3 13.6213 0.77433
   8   1   3 20.8833 1.09506
   9   1   3 16.1826 1.36065
  10   1   3 2.39388 0.81822
  -9   2   3 6.93421 0.90015
  -8   2   3 201.097 3.10661
  -7   2   3 10.7480 0.70717
  -6   2   3 62.2686 1.11957
  -5   2   3 6.00489 0.55584
  -4   2   3 13.6792 0.47600
  -3   2   3 268.820 1.87591
  -2   2   3 1162.38 7.87289
  -1   2   3 1530.72 6.31476
   0   2   3 71.8094 0.54344
   1   2   3 316.151 1.67163
   2   2   3 2803.51 11.5931
   3   2   3 382.673 2.26300
   4   2   3 484.733 2.66914
   5   2   3 34.9842 0.63818
   6   2   3 83.2801 2.67402
   7   2   3 76.2449 1.42807
   8   2   3 115.904 2.51198
   9   2   3 41.6648 2.03639
  10   2   3 2.68101 0.82821
  -9   3   3 2.47939 0.73794
  -8   3   3 75.3759 1.95013
  -7   3   3 47.0355 1.43557
  -6   3   3 36.6538 1.37452
  -5   3   3 32.1288 0.81502
  -4   3   3 6.69762 0.40117
  -3   3   3 450.569 2.91850
  -2   3   3 440.565 2.97475
  -1   3   3 564.379 2.77405
   0   3   3 786.971 4.09022
   1   3   3 67.6811 0.64018
   2   3   3 10.1687 0.32147
   3   3   3 21.8520 0.68820
   4   3   3 158.429 1.28484
   5   3   3 3.61966 0.24805
   6   3   3 247.528 2.89435
   7   3   3 0.93335 0.31146
   8   3   3 66.6794 1.84541
   9   3   3 8.30847 1.27913
  10   3   3 9.56030 1.14346
  -8   4   3 39.3325 1.60748
  -7   4   3 37.1733 1.36463
  -6   4   3 179.697 2.11069
  -5   4   3 4.87665 1.00466
  -4   4   3 1.21793 0.27440
  -3   4   3 67.5821 0.97632
  -2   4   3 49.7690 1.44802
  -1   4   3 43.9740 0.67319
   0   4   3 623.479 3.41465
   1   4   3 934.483 4.80023
   2   4   3 1015.44 4.89308
   3   4   3 242.481 1.83710
   4   4   3 0.48290 0.17800
   5   4   3 6.52745 0.44360
   6   4   3 13.5057 2.54759
   7   4   3 339.445 3.29622
   8   4   3 0.35610 0.40478
   9   4   3 33.4823 1.68573
  10   4   3 4.00294 0.90373
  -8   5   3 7.64633 1.17154
  -7   5   3 2.25192 0.60136
  -6   5   3 10.0167 0.73720
  -5   5   3 31.0836 1.75973
  -4   5   3 281.284 2.43494
  -3   5   3 64.9904 1.03563
  -2   5   3 57.2394 1.73791
  -1   5   3 21.0957 0.49183
   0   5   3 1161.48 5.47150
   1   5   3 23.0712 0.47500
   2   5   3 874.196 4.59611
   3   5   3 14.4019 0.54537
   4   5   3 310.222 2.52808
   5   5   3 154.337 1.60759
   6   5   3 102.785 1.62504
   7   5   3 88.0267 1.59250
   8   5   3 8.43997 0.75295
   9   5   3 3.89472 1.14485
  10   5   3 46.6150 2.30897
  -7   6   3 4.96728 0.79463
  -6   6   3 1.19113 0.48704
  -5   6   3 0.58993 0.52589
  -4   6   3 56.3157 1.22325
  -3   6   3 49.9185 0.99444
  -2   6   3 79.3816 1.27624
  -1   6   3 26.4184 0.62521
   0   6   3 282.826 2.01235
   1   6   3 227.154 1.67578
   2   6   3 81.4169 0.94614
   3   6   3 87.5826 1.16549
   4   6   3 150.121 1.54074
   5   6   3 131.652 1.58155
   6   6   3 153.952 3.44212
   7   6   3 106.800 1.79303
   8   6   3 39.8926 1.41744
   9   6   3 88.4222 2.29254
  10   6   3 13.0492 1.76585
  -7   7   3 10.1885 1.08385
  -6   7   3 9.46565 0.91100
  -5   7   3 0.31438 1.05136
  -4   7   3 34.9958 1.14495
  -3   7   3 68.9474 1.38273
  -2   7   3 15.1035 1.73872
  -1   7   3 0.77888 0.24528
   0   7   3 1.80324 0.24844
   1   7   3 3.10740 0.47857
   2   7   3 108.659 1.21886
   3   7   3 122.575 1.57905
   4   7   3 148.453 1.65787
   5   7   3 306.748 2.96922
   6   7   3 22.5441 3.79548
   7   7   3 0.39920 0.36149
   8   7   3 16.4679 0.97979
   9   7   3 53.6294 2.21688
  -6   8   3 14.8120 1.30497
  -5   8   3 58.2329 1.76129
  -4   8   3 0.39174 0.39234
  -3   8   3 56.8664 1.39885
  -2   8   3 0.00000 0.62217
  -1   8   3 699.146 5.44899
   0   8   3 38.1285 1.02652
   1   8   3 71.2285 2.13358
   2   8   3 86.9406 1.34173
   3   8   3 13.5051 0.84696
   4   8   3 0.38552 0.32690
   5   8   3 1.16944 0.40952
   6   8   3 4.06935 0.79754
   7   8   3 10.4391 0.84438
   8   8   3 19.2415 1.13597
   9   8   3 2.10619 1.31189
  -5   9   3 12.3342 1.36349
  -4   9   3 38.7927 1.65582
  -3   9   3 41.4962 1.46566
  -2   9   3 42.3684 1.57314
  -1   9   3 66.8080 1.54085
   0   9   3 16.7958 0.93019
   1   9   3 68.8870 1.61525
   2   9   3 0.63345 0.34875
   3   9   3 40.7388 2.22187
   4   9   3 12.8739 0.86712
   5   9   3 19.0887 1.14493
   6   9   3 17.7475 1.59198
   7   9   3 8.26835 0.85191
   8   9   3 0.66031 0.58291
  -4  10   3 7.44775 0.92496
  -3  10   3 2.56004 0.62137
  -2  10   3 47.2059 1.48983
  -1  10   3 1.11747 0.44196
   0  10   3 91.4685 1.96490
   1  10   3 50.9109 1.73019
   2  10   3 62.6777 1.70292
   3  10   3 1.90728 1.36991
   4  10   3 88.5753 2.23000
   5  10   3 28.6228 1.66544
   6  10   3 1.63609 0.89720
   7  10   3 0.61596 0.58828
  -2  11   3 4.92903 1.22534
  -1  11   3 15.0220 1.04283
   0  11   3 21.3975 1.15007
   1  11   3 69.4378 1.98623
   2  11   3 0.42450 0.44053
   3  11   3 7.16553 1.71320
   4  11   3 13.0999 1.09691
   5  11   3 46.7994 2.14060
   6  11   3 52.9819 2.45474
   0  12   3 4.43338 0.86521
   1  12   3 5.95746 1.29699
   2  12   3 58.6017 2.12299
   3  12   3 15.9147 1.67251
  -1 -11   4 36.9779 3.93837
  -5 -10   4 22.0686 1.76780
  -4 -10   4 40.4701 2.04687
  -3 -10   4 29.1139 2.78296
  -2 -10   4 23.2728 1.36319
  -1 -10   4 32.1429 1.56952
   0 -10   4 49.6967 2.08203
   1 -10   4 1.62466 0.68205
   2 -10   4 21.8082 1.67858
  -6  -9   4 44.9486 2.60154
  -5  -9   4 1.21147 0.72637
  -4  -9   4 3.33183 0.76161
  -3  -9   4 4.35203 2.18909
  -2  -9   4 6.28121 0.71839
  -1  -9   4 5.00147 0.67030
   0  -9   4 63.1904 2.14994
   1  -9   4 1.15612 0.54933
   2  -9   4 45.3394 1.87094
   3  -9   4 3.66975 1.58902
   4  -9   4 30.6194 2.14889
  -7  -8   4 21.2168 1.30980
  -6  -8   4 17.8472 1.17327
  -5  -8   4 1.21149 0.46007
  -4  -8   4 6.69812 0.70570
  -3  -8   4 4.06641 1.19150
  -2  -8   4 0.56382 0.41021
  -1  -8   4 7.99564 0.70939
   0  -8   4 218.124 4.00879
   1  -8   4 11.2642 0.84415
   2  -8   4 5.89845 0.71738
   3  -8   4 4.58923 1.19630
   4  -8   4 26.4833 1.71437
   5  -8   4 1.60480 1.72575
  -8  -7   4 58.8941 1.78695
  -7  -7   4 5.14489 0.63977
  -6  -7   4 25.0928 1.44769
  -5  -7   4 213.787 2.41990
  -4  -7   4 153.546 1.92096
  -3  -7   4 54.4031 1.21798
  -2  -7   4 97.7120 1.51745
  -1  -7   4 0.60142 0.35730
   0  -7   4 26.7533 1.45518
   1  -7   4 8.93265 0.67046
   2  -7   4 52.4620 1.52678
   3  -7   4 1.30348 0.64383
   4  -7   4 30.9053 1.48799
   5  -7   4 0.00491 2.11092
   6  -7   4 4.88273 1.34323
  -8  -6   4 17.2185 1.26488
  -7  -6   4 4.27132 0.59480
  -6  -6   4 37.1880 1.23772
  -5  -6   4 75.4335 1.32408
  -4  -6   4 23.9581 0.79040
  -3  -6   4 291.222 2.69653
  -2  -6   4 206.318 1.95837
  -1  -6   4 265.211 2.20221
   0  -6   4 67.7731 1.11205
   1  -6   4 88.0201 1.30783
   2  -6   4 0.37338 0.23627
   3  -6   4 35.7219 1.11306
   4  -6   4 19.7618 0.97933
   5  -6   4 10.7485 1.31451
   6  -6   4 10.9224 1.37381
   7  -6   4 40.7259 2.46809
  -9  -5   4 6.28857 0.92194
  -8  -5   4 1.79119 0.83627
  -7  -5   4 0.88114 0.41490
  -6  -5   4 3.14117 0.56669
  -5  -5   4 184.865 1.91465
  -4  -5   4 13.5851 0.58237
  -3  -5   4 666.180 4.71914
  -2  -5   4 159.122 1.39329
  -1  -5   4 97.7575 0.91775
   0  -5   4 24.8189 1.24750
   1  -5   4 61.1702 0.96494
   2  -5   4 8.36769 0.33163
   3  -5   4 23.4906 0.77329
   4  -5   4 14.0182 0.60084
   5  -5   4 5.18387 0.82570
   6  -5   4 282.232 3.85802
   7  -5   4 18.6733 1.49132
   8  -5   4 25.4834 2.41749
  -9  -4   4 148.858 3.01969
  -8  -4   4 22.7065 1.24734
  -7  -4   4 0.53127 0.38021
  -6  -4   4 468.882 3.58577
  -5  -4   4 13.0580 0.56391
  -4  -4   4 101.445 1.25232
  -3  -4   4 8.69726 0.79040
  -2  -4   4 14.4992 0.43103
  -1  -4   4 101.298 0.84947
   0  -4   4 41.4150 1.28904
   1  -4   4 4.53334 0.31141
   2  -4   4 11.3889 0.35036
   3  -4   4 81.9510 1.03805
   4  -4   4 2.25978 0.25885
   5  -4   4 65.3740 1.36939
   6  -4   4 2.00318 0.44346
   7  -4   4 0.85980 0.48845
   8  -4   4 17.2629 1.21336
  -9  -3   4 9.76265 0.99412
  -8  -3   4 28.3703 1.36977
  -7  -3   4 0.42146 0.31628
  -6  -3   4 16.4296 0.67170
  -5  -3   4 220.000 1.92600
  -4  -3   4 300.500 2.17911
  -3  -3   4 22.6225 0.55186
  -2  -3   4 63.9354 0.76686
  -1  -3   4 172.853 1.18702
   0  -3   4 255.761 2.66732
   1  -3   4 23.8116 0.48635
   2  -3   4 217.591 1.48473
   3  -3   4 0.28772 0.14246
   4  -3   4 202.312 1.78741
   5  -3   4 158.410 2.18440
   6  -3   4 88.0758 1.65543
   7  -3   4 445.794 4.62899
   8  -3   4 39.7436 1.46870
   9  -3   4 33.2051 1.73642
  -9  -2   4 18.6118 1.32260
  -8  -2   4 84.9699 2.04490
  -7  -2   4 20.3962 0.82318
  -6  -2   4 360.682 2.88381
  -5  -2   4 8.76273 0.45292
  -4  -2   4 796.432 4.41287
  -3  -2   4 353.745 8.32344
  -2  -2   4 33.4086 0.54243
  -1  -2   4 747.968 3.43968
   0  -2   4 494.389 2.86685
   1  -2   4 2.13601 0.12994
   2  -2   4 74.9175 0.67020
   3  -2   4 4.09993 0.23693
   4  -2   4 23.7651 0.50116
   5  -2   4 2.23252 0.37006
   6  -2   4 294.144 3.25115
   7  -2   4 38.8826 1.29383
   8  -2   4 5.65554 0.93727
   9  -2   4 1.29437 0.57038
  -9  -1   4 15.1650 1.25378
  -8  -1   4 2.98618 0.86786
  -7  -1   4 15.9434 0.76417
  -6  -1   4 232.180 2.14234
  -5  -1   4 351.366 2.61120
  -4  -1   4 37.0492 0.72060
  -3  -1   4 156.757 3.41584
  -2  -1   4 2.44519 0.19399
  -1  -1   4 164.031 1.04649
   0  -1   4 74.5545 0.61764
   1  -1   4 272.224 1.55342
   2  -1   4 2025.73 8.91445
   3  -1   4 284.727 1.86002
   4  -1   4 2.30564 0.15466
   5  -1   4 1.77429 0.37433
   6  -1   4 244.319 2.68177
   7  -1   4 0.42672 0.34963
   8  -1   4 31.6771 1.34140
   9  -1   4 23.6319 1.38349
  10  -1   4 0.82524 0.72603
  -9   0   4 0.58275 0.59383
  -8   0   4 20.2054 1.58802
  -7   0   4 135.432 1.79957
  -6   0   4 15.6418 0.68473
  -5   0   4 35.4192 0.83854
  -4   0   4 214.185 1.78682
  -3   0   4 248.577 2.31656
  -2   0   4 275.330 1.89921
  -1   0   4 700.403 3.47020
   0   0   4 68.8445 0.66762
   1   0   4 0.54080 0.12554
   2   0   4 1.00859 0.13802
   3   0   4 1320.83 6.23657
   4   0   4 161.815 1.23009
   5   0   4 120.419 1.26678
   6   0   4 122.319 1.58056
   7   0   4 141.505 2.14426
   8   0   4 72.3062 1.84100
   9   0   4 0.49580 0.56457
  10   0   4 5.70677 1.01218
  -9   1   4 10.5625 1.01912
  -8   1   4 19.5556 1.44516
  -7   1   4 0.32953 0.30950
  -6   1   4 160.969 1.81833
  -5   1   4 5.10075 0.37974
  -4   1   4 148.990 1.39963
  -3   1   4 996.254 5.75504
  -2   1   4 215.506 1.48786
  -1   1   4 409.317 2.17348
   0   1   4 8.41883 0.34481
   1   1   4 24.5021 0.48313
   2   1   4 59.5689 0.73931
   3   1   4 327.141 2.17631
   4   1   4 340.304 2.24376
   5   1   4 117.819 1.18951
   6   1   4 319.636 2.57387
   7   1   4 287.164 3.31457
   8   1   4 9.82132 0.92871
   9   1   4 90.5930 2.58314
  10   1   4 0.14242 0.56011
  -9   2   4 5.35421 0.86682
  -8   2   4 8.64635 1.20242
  -7   2   4 114.338 1.97554
  -6   2   4 2.24656 0.36846
  -5   2   4 2.28595 0.31690
  -4   2   4 63.4915 0.92978
  -3   2   4 2795.47 14.8167
  -2   2   4 153.388 1.22669
  -1   2   4 353.470 1.90917
   0   2   4 2.77768 0.26337
   1   2   4 0.25528 0.12010
   2   2   4 417.915 2.44563
   3   2   4 1.34083 0.20011
   4   2   4 1625.09 7.63741
   5   2   4 37.3756 0.93760
   6   2   4 8.69050 0.41599
   7   2   4 44.0405 1.16824
   8   2   4 7.48843 0.93083
   9   2   4 1.29556 0.60622
  10   2   4 19.9458 1.54866
  -9   3   4 1.70154 0.77548
  -8   3   4 1.17228 0.87273
  -7   3   4 15.9145 0.96757
  -6   3   4 8.75997 0.71514
  -5   3   4 0.33147 0.25577
  -4   3   4 46.5894 0.86246
  -3   3   4 2.03882 0.45174
  -2   3   4 175.065 1.43097
  -1   3   4 150.846 1.08846
   0   3   4 138.301 1.51299
   1   3   4 0.21845 0.11414
   2   3   4 262.423 1.81861
   3   3   4 883.216 4.65530
   4   3   4 282.998 1.93870
   5   3   4 26.8255 0.77162
   6   3   4 143.674 1.63567
   7   3   4 10.6781 0.66352
   8   3   4 2.61758 0.82913
   9   3   4 97.8177 2.53074
  10   3   4 3.24089 0.81889
  -8   4   4 13.7531 1.38935
  -7   4   4 4.23590 0.67463
  -6   4   4 161.851 2.06863
  -5   4   4 17.9546 0.72383
  -4   4   4 0.92476 0.26834
  -3   4   4 90.9890 1.19695
  -2   4   4 6.76130 0.32343
  -1   4   4 14.1030 0.41794
   0   4   4 175.198 2.39536
   1   4   4 223.948 1.73758
   2   4   4 23.5798 0.51011
   3   4   4 1.32559 0.20122
   4   4   4 147.301 1.31076
   5   4   4 3.12611 0.43081
   6   4   4 29.4728 0.94145
   7   4   4 50.8213 1.23458
   8   4   4 4.02312 1.21899
   9   4   4 32.0094 1.62909
  10   4   4 0.50977 0.65110
  -8   5   4 0.00000 1.59850
  -7   5   4 11.6755 0.96088
  -6   5   4 25.6837 1.24326
  -5   5   4 27.1952 0.91196
  -4   5   4 89.5088 1.36098
  -3   5   4 41.4068 2.84823
  -2   5   4 169.855 1.46769
  -1   5   4 5.77756 0.29388
   0   5   4 131.732 1.68677
   1   5   4 38.5372 0.73451
   2   5   4 5.86412 0.34074
   3   5   4 62.6122 0.90378
   4   5   4 20.2801 0.58498
   5   5   4 297.555 2.83934
   6   5   4 4.20827 0.45630
   7   5   4 20.9489 0.90499
   8   5   4 10.0311 1.08605
   9   5   4 209.739 3.72187
  10   5   4 1.90627 0.80795
  -7   6   4 21.8086 1.39306
  -6   6   4 260.143 3.41077
  -5   6   4 1.50864 0.39832
  -4   6   4 16.1333 0.77027
  -3   6   4 21.2545 1.76931
  -2   6   4 20.3286 0.68484
  -1   6   4 2.22408 0.26456
   0   6   4 128.010 1.78223
   1   6   4 67.9762 0.95373
   2   6   4 6.05945 0.35724
   3   6   4 288.096 2.40463
   4   6   4 180.623 1.67606
   5   6   4 121.938 2.50704
   6   6   4 76.1867 1.51157
   7   6   4 21.8967 0.96892
   8   6   4 12.2414 1.02788
   9   6   4 5.48528 0.83984
  -7   7   4 5.37430 0.93012
  -6   7   4 1.24996 0.87122
  -5   7   4 3.50360 0.59113
  -4   7   4 0.51634 0.35238
  -3   7   4 9.36291 0.98207
  -2   7   4 15.3251 0.68168
  -1   7   4 354.120 3.06887
   0   7   4 5.95425 1.00486
   1   7   4 200.978 1.98691
   2   7   4 15.2910 0.55630
   3   7   4 147.179 1.78747
   4   7   4 90.1952 1.31146
   5   7   4 23.5442 1.47055
   6   7   4 44.3901 1.30958
   7   7   4 3.37800 0.52080
   8   7   4 1.33641 1.03961
   9   7   4 21.3379 1.29700
  -6   8   4 12.0697 1.71675
  -5   8   4 19.7157 1.28353
  -4   8   4 31.8698 1.25590
  -3   8   4 41.1824 1.25670
  -2   8   4 152.433 2.25097
  -1   8   4 39.5231 1.22988
   0   8   4 58.8770 1.55647
   1   8   4 275.326 2.99996
   2   8   4 17.9788 0.81404
   3   8   4 22.9103 1.08666
   4   8   4 4.55218 0.55272
   5   8   4 17.1026 1.08872
   6   8   4 0.86513 0.43295
   7   8   4 3.09191 0.60050
   8   8   4 1.19868 0.96914
   9   8   4 14.1448 1.31391
  -5   9   4 34.9533 1.89572
  -4   9   4 0.74871 0.55490
  -3   9   4 150.683 2.50102
  -2   9   4 16.2859 0.91077
  -1   9   4 1.36116 0.43237
   0   9   4 201.788 3.68826
   1   9   4 210.947 2.84591
   2   9   4 29.9909 1.24926
   3   9   4 13.5156 1.06738
   4   9   4 37.2599 1.36322
   5   9   4 20.1322 1.41728
   6   9   4 0.74327 0.50173
   7   9   4 14.5380 1.15449
   8   9   4 30.0896 1.84623
  -4  10   4 51.2298 2.06657
  -3  10   4 158.759 3.19689
  -2  10   4 5.91143 0.70301
  -1  10   4 1.41026 0.49642
   0  10   4 18.9823 1.49764
   1  10   4 21.2245 1.14596
   2  10   4 86.9803 2.00699
   3  10   4 17.1979 1.48083
   4  10   4 0.98863 0.48324
   5  10   4 21.4893 1.68970
   6  10   4 4.19766 0.86193
   7  10   4 16.7801 1.46149
  -2  11   4 6.26015 0.79014
  -1  11   4 1.77965 0.56287
   0  11   4 10.8355 1.31583
   1  11   4 0.30445 0.44770
   2  11   4 0.98872 0.56248
   3  11   4 41.6208 2.08170
   4  11   4 0.50116 0.52889
   5  11   4 0.69866 1.02677
   6  11   4 0.92778 0.73444
   1  12   4 6.60392 0.87320
   2  12   4 6.74528 0.99139
   3  12   4 11.5135 1.08819
  -4 -10   5 25.2034 1.73605
  -3 -10   5 1.46224 0.71419
  -2 -10   5 5.08954 0.88760
  -1 -10   5 21.9043 1.72716
   0 -10   5 1.07923 0.66005
   1 -10   5 2.27205 0.79521
   2 -10   5 9.26613 2.01142
  -5  -9   5 0.48941 0.71301
  -4  -9   5 81.5225 2.66599
  -3  -9   5 15.6680 1.18079
  -2  -9   5 213.474 3.27832
  -1  -9   5 15.4546 1.65564
   0  -9   5 4.70293 0.76630
   1  -9   5 14.9922 1.13785
   2  -9   5 15.7032 1.55371
   3  -9   5 0.83158 0.74836
   4  -9   5 1.14210 1.08365
  -7  -8   5 4.24464 1.81917
  -6  -8   5 16.0462 1.88974
  -5  -8   5 8.53280 0.98328
  -4  -8   5 15.0854 1.25760
  -3  -8   5 79.5996 2.00818
  -2  -8   5 0.86021 0.43742
  -1  -8   5 1.78903 0.85675
   0  -8   5 0.47570 0.44442
   1  -8   5 10.2790 0.89302
   2  -8   5 3.22969 1.34167
   3  -8   5 0.93840 0.64070
   4  -8   5 1.01440 0.94397
   5  -8   5 1.07327 1.69528
  -7  -7   5 16.3017 1.17347
  -6  -7   5 17.5416 1.17153
  -5  -7   5 18.3356 0.95399
  -4  -7   5 13.5367 0.95245
  -3  -7   5 25.2264 1.09598
  -2  -7   5 17.5740 0.91828
  -1  -7   5 35.7119 1.34886
   0  -7   5 428.007 4.26822
   1  -7   5 281.557 3.43653
   2  -7   5 10.9374 0.93592
   3  -7   5 0.57357 0.46775
   4  -7   5 0.90310 0.62258
   5  -7   5 1.02951 1.53813
   6  -7   5 4.78768 1.41174
  -8  -6   5 5.00844 0.73856
  -7  -6   5 155.933 2.56869
  -6  -6   5 89.1553 1.75204
  -5  -6   5 0.36638 0.32130
  -4  -6   5 0.80283 0.38902
  -3  -6   5 807.486 5.34635
  -2  -6   5 7.48413 0.47940
  -1  -6   5 293.552 3.34454
   0  -6   5 158.487 2.25124
   1  -6   5 80.9806 1.64939
   2  -6   5 70.1885 2.70048
   3  -6   5 47.2418 1.38392
   4  -6   5 32.0878 1.52185
   5  -6   5 16.8110 2.64927
   6  -6   5 55.1654 3.26160
   7  -6   5 27.3937 4.98298
  -8  -5   5 1.27453 0.54053
  -7  -5   5 59.6234 1.69521
  -6  -5   5 15.0676 0.79812
  -5  -5   5 19.1112 0.74422
  -4  -5   5 1.42929 0.42458
  -3  -5   5 2.94994 0.32088
  -2  -5   5 8.44905 0.40060
  -1  -5   5 17.2671 1.05677
   0  -5   5 12.6672 0.67025
   1  -5   5 2.00658 0.35924
   2  -5   5 112.866 1.88791
   3  -5   5 58.8689 1.16097
   4  -5   5 45.9020 1.36142
   5  -5   5 1.61136 0.72543
   6  -5   5 0.31276 0.59938
   7  -5   5 2.14130 1.64378
   8  -5   5 4.18670 1.34545
  -9  -4   5 4.88159 0.95210
  -8  -4   5 28.1491 1.28329
  -7  -4   5 38.3640 1.32977
  -6  -4   5 0.96484 0.56319
  -5  -4   5 189.404 1.93397
  -4  -4   5 33.6343 0.86454
  -3  -4   5 80.0131 1.03886
  -2  -4   5 82.5754 0.88335
  -1  -4   5 20.1437 0.60525
   0  -4   5 1.33851 0.28469
   1  -4   5 2.17788 0.29771
   2  -4   5 16.9392 1.55604
   3  -4   5 6.68124 0.31253
   4  -4   5 373.383 2.93513
   5  -4   5 47.6987 1.20375
   6  -4   5 11.5090 0.90434
   7  -4   5 138.546 3.78046
   8  -4   5 71.1778 2.65855
  -9  -3   5 44.4839 1.72611
  -8  -3   5 0.61475 0.50474
  -7  -3   5 0.29697 0.35646
  -6  -3   5 6.34750 0.90331
  -5  -3   5 212.319 1.89424
  -4  -3   5 12.3063 0.51620
  -3  -3   5 2.87346 0.27187
  -2  -3   5 19.8520 0.47806
  -1  -3   5 63.5406 1.20245
   0  -3   5 6.15673 0.37017
   1  -3   5 33.9693 0.79739
   2  -3   5 44.6804 0.87224
   3  -3   5 99.1652 0.99035
   4  -3   5 4.66267 0.29998
   5  -3   5 282.635 2.99574
   6  -3   5 23.3496 0.98905
   7  -3   5 24.7479 1.23474
   8  -3   5 33.7696 1.55668
   9  -3   5 26.7801 1.88332
  -9  -2   5 17.9560 1.33761
  -8  -2   5 1.27304 0.47522
  -7  -2   5 17.3070 0.83662
  -6  -2   5 6.18519 0.63241
  -5  -2   5 13.1616 0.55834
  -4  -2   5 0.39031 0.21443
  -3  -2   5 20.9487 0.53089
  -2  -2   5 121.425 1.07552
  -1  -2   5 668.305 3.61775
   0  -2   5 255.795 1.57846
   1  -2   5 482.620 2.45441
   2  -2   5 99.4805 0.99317
   3  -2   5 30.5647 0.51531
   4  -2   5 115.478 1.14503
   5  -2   5 332.464 3.06284
   6  -2   5 44.0509 1.26830
   7  -2   5 16.0714 1.20096
   8  -2   5 0.67652 0.51503
   9  -2   5 12.4370 1.17042
  -9  -1   5 2.38486 0.89978
  -8  -1   5 11.3864 0.88770
  -7  -1   5 3.99864 0.50009
  -6  -1   5 165.234 2.28142
  -5  -1   5 297.746 2.31687
  -4  -1   5 191.860 1.66275
  -3  -1   5 13.1294 0.42352
  -2  -1   5 186.653 1.41337
  -1  -1   5 286.521 2.87357
   0  -1   5 247.278 1.55548
   1  -1   5 8.57516 0.28344
   2  -1   5 14.2804 0.44780
   3  -1   5 74.9825 0.82887
   4  -1   5 348.009 2.39891
   5  -1   5 1.79494 0.26982
   6  -1   5 49.9011 1.29993
   7  -1   5 61.2854 1.87580
   8  -1   5 1.25534 0.50223
   9  -1   5 8.81465 0.93794
  -9   0   5 4.16933 1.15025
  -8   0   5 1.20312 0.49672
  -7   0   5 25.9420 0.98489
  -6   0   5 45.0096 1.62008
  -5   0   5 158.759 1.63803
  -4   0   5 93.2428 1.05969
  -3   0   5 1.47350 0.21248
  -2   0   5 150.058 1.37166
  -1   0   5 1541.02 7.98701
   0   0   5 131.991 1.07313
   1   0   5 111.586 1.02313
   2   0   5 3.77573 0.40102
   3   0   5 8.05884 0.35803
   4   0   5 85.1811 0.97969
   5   0   5 181.307 1.50088
   6   0   5 133.615 1.74331
   7   0   5 169.612 3.65209
   8   0   5 0.40081 0.44281
   9   0   5 3.80735 0.78892
  10   0   5 8.96497 1.25545
  -9   1   5 2.88306 1.36770
  -8   1   5 42.5557 1.61297
  -7   1   5 4.27693 0.52609
  -6   1   5 1.07090 0.51221
  -5   1   5 817.617 4.87386
  -4   1   5 8.00519 0.39627
  -3   1   5 59.4355 0.79869
  -2   1   5 737.182 4.20928
  -1   1   5 66.1351 3.23213
   0   1   5 68.5278 0.79163
   1   1   5 10.6167 0.39439
   2   1   5 81.5622 1.14275
   3   1   5 60.4570 0.84110
   4   1   5 449.354 3.25493
   5   1   5 68.9747 1.02461
   6   1   5 91.6250 1.33053
   7   1   5 305.533 6.17987
   8   1   5 28.3742 1.37946
   9   1   5 74.0120 2.33521
  10   1   5 0.43601 1.23448
  -9   2   5 1.21923 0.93256
  -8   2   5 5.24983 0.78263
  -7   2   5 0.52500 0.37398
  -6   2   5 61.5643 1.28813
  -5   2   5 258.823 2.16654
  -4   2   5 2.11794 0.27151
  -3   2   5 1349.09 6.62531
  -2   2   5 1272.40 6.37464
  -1   2   5 403.295 3.38204
   0   2   5 0.38432 0.13975
   1   2   5 5.20147 0.29200
   2   2   5 179.186 1.59853
   3   2   5 1072.09 5.60601
   4   2   5 0.63919 0.20222
   5   2   5 0.59234 0.24072
   6   2   5 513.035 4.07044
   7   2   5 1.16358 0.64204
   8   2   5 35.4514 1.56062
   9   2   5 3.05577 0.70503
  10   2   5 15.5226 1.48364
  -8   3   5 1.86885 0.63011
  -7   3   5 47.6322 1.48079
  -6   3   5 0.67585 0.50954
  -5   3   5 157.592 1.74348
  -4   3   5 29.8463 0.75934
  -3   3   5 565.370 3.51127
  -2   3   5 11.1368 0.39921
  -1   3   5 64.7064 2.43932
   0   3   5 317.775 1.85669
   1   3   5 86.6884 0.87783
   2   3   5 23.6502 0.67524
   3   3   5 53.9358 0.87597
   4   3   5 402.949 2.67305
   5   3   5 118.826 1.40131
   6   3   5 393.216 3.18894
   7   3   5 646.207 7.33888
   8   3   5 14.1453 1.06492
   9   3   5 0.46245 0.52569
  10   3   5 10.5583 1.42668
  -8   4   5 3.38602 0.76409
  -7   4   5 16.2975 1.07349
  -6   4   5 0.51929 0.57857
  -5   4   5 1.11530 0.33130
  -4   4   5 51.1895 1.03628
  -3   4   5 23.5157 0.67137
  -2   4   5 3.70929 0.26967
  -1   4   5 185.118 2.02338
   0   4   5 195.878 1.61260
   1   4   5 320.796 2.33780
   2   4   5 45.8195 0.95939
   3   4   5 133.598 1.31496
   4   4   5 32.3034 0.71698
   5   4   5 20.3667 0.59447
   6   4   5 103.089 1.69929
   7   4   5 284.871 3.88756
   8   4   5 20.5257 1.16404
   9   4   5 1.27968 0.64374
  10   4   5 25.4125 1.60108
  -8   5   5 0.45908 0.74735
  -7   5   5 80.4560 2.16711
  -6   5   5 7.79478 1.33463
  -5   5   5 12.6843 0.71303
  -4   5   5 65.0658 1.21922
  -3   5   5 8.58271 0.45529
  -2   5   5 66.0946 1.02276
  -1   5   5 44.0616 0.94690
   0   5   5 16.7353 0.61386
   1   5   5 309.513 2.58444
   2   5   5 74.7117 1.25511
   3   5   5 0.35119 0.19121
   4   5   5 19.6525 0.62327
   5   5   5 60.1376 1.38938
   6   5   5 154.158 2.16714
   7   5   5 62.4872 1.89055
   8   5   5 47.4316 1.58395
   9   5   5 1.90208 0.67323
  10   5   5 4.97705 1.21459
  -7   6   5 3.68331 0.81396
  -6   6   5 3.46898 1.03960
  -5   6   5 1.15522 0.43372
  -4   6   5 1.37019 0.45755
  -3   6   5 5.25709 0.48676
  -2   6   5 161.850 1.66127
  -1   6   5 146.306 1.81969
   0   6   5 35.2358 0.99991
   1   6   5 361.506 3.19223
   2   6   5 269.617 2.61392
   3   6   5 295.120 2.36513
   4   6   5 0.67699 0.27843
   5   6   5 280.222 3.12040
   6   6   5 0.34786 0.33506
   7   6   5 23.0295 1.23688
   8   6   5 1.17335 0.52083
   9   6   5 127.728 2.97269
  -6   7   5 19.1108 1.58581
  -5   7   5 12.4497 0.88361
  -4   7   5 19.2198 0.98890
  -3   7   5 0.47004 0.34706
  -2   7   5 50.8733 1.25285
  -1   7   5 11.6260 1.91956
   0   7   5 122.462 1.99053
   1   7   5 0.40329 0.33244
   2   7   5 99.6067 1.98734
   3   7   5 0.37802 0.29805
   4   7   5 408.646 3.40313
   5   7   5 35.4370 1.37923
   6   7   5 158.273 2.26955
   7   7   5 13.9186 1.35056
   8   7   5 40.7738 1.57920
   9   7   5 44.1656 1.96401
  -6   8   5 6.30258 1.05178
  -5   8   5 4.14652 0.78638
  -4   8   5 14.0659 1.07590
  -3   8   5 75.6027 1.79003
  -2   8   5 2.61724 0.48102
  -1   8   5 15.6705 1.03233
   0   8   5 87.3692 1.79779
   1   8   5 48.6615 1.43289
   2   8   5 209.383 3.30110
   3   8   5 188.227 2.49519
   4   8   5 155.621 2.44135
   5   8   5 84.2497 2.13652
   6   8   5 9.43122 0.87120
   7   8   5 0.00000 2.01849
   8   8   5 17.8101 1.24460
  -5   9   5 3.73006 0.88933
  -4   9   5 8.25852 1.59838
  -3   9   5 22.8601 1.13976
  -2   9   5 14.6890 0.90199
  -1   9   5 14.4887 0.85747
   0   9   5 12.9760 0.88418
   1   9   5 150.315 2.50987
   2   9   5 0.23918 0.74998
   3   9   5 0.33149 0.37817
   4   9   5 12.5565 1.01375
   5   9   5 42.0788 2.11733
   6   9   5 27.9608 1.62600
   7   9   5 3.77021 1.13826
   8   9   5 0.84222 0.67010
  -3  10   5 1.40400 0.61435
  -2  10   5 50.4927 1.73653
  -1  10   5 42.7784 1.49557
   0  10   5 76.9406 2.11839
   1  10   5 76.1963 2.03751
   2  10   5 40.8105 1.52965
   3  10   5 25.5525 1.41281
   4  10   5 2.59955 0.65788
   5  10   5 15.7986 1.85789
   6  10   5 0.48660 0.61431
   7  10   5 77.8974 3.11326
  -2  11   5 8.21289 0.91966
  -1  11   5 13.7583 1.27641
   0  11   5 1.00808 0.54970
   1  11   5 83.8965 2.30278
   2  11   5 8.36876 1.16778
   3  11   5 11.5689 1.07124
   4  11   5 5.47550 0.92189
   5  11   5 50.8186 2.63314
   6  11   5 26.5340 1.95627
   1  12   5 1.07294 0.60665
   2  12   5 10.7360 1.32541
   3  12   5 7.41671 1.07032
  -2 -10   6 71.3996 2.59493
  -1 -10   6 2.24139 0.83744
   0 -10   6 22.1455 1.55110
  -5  -9   6 8.56725 1.23189
  -4  -9   6 27.8072 2.16444
  -3  -9   6 0.66078 0.63188
  -2  -9   6 20.9102 2.00778
  -1  -9   6 3.45139 0.73156
   0  -9   6 43.8076 1.86863
   1  -9   6 24.6487 1.54431
   2  -9   6 26.1789 1.74348
   3  -9   6 7.40345 1.15002
  -6  -8   6 13.4737 1.45806
  -5  -8   6 9.61178 1.11624
  -4  -8   6 2.04227 0.96293
  -3  -8   6 2.36174 0.61157
  -2  -8   6 40.1923 2.03009
  -1  -8   6 4.33772 0.64349
   0  -8   6 2.68471 0.61994
   1  -8   6 48.4824 1.85091
   2  -8   6 41.9333 1.79292
   3  -8   6 4.97723 0.95250
   4  -8   6 38.9062 3.41651
  -7  -7   6 17.3383 1.66300
  -6  -7   6 42.7678 2.06577
  -5  -7   6 0.49836 0.49868
  -4  -7   6 3.20718 1.10830
  -3  -7   6 0.33072 0.41222
  -2  -7   6 6.44558 0.97733
  -1  -7   6 65.8070 1.70251
   0  -7   6 65.9174 1.69542
   1  -7   6 5.05332 0.86217
   2  -7   6 16.5434 1.02234
   3  -7   6 81.5092 2.42687
   4  -7   6 1.21859 1.36077
   5  -7   6 4.62899 1.32249
   6  -7   6 65.8155 4.37698
  -7  -6   6 44.9949 1.71885
  -6  -6   6 87.8230 1.95589
  -5  -6   6 57.7828 1.45327
  -4  -6   6 7.18055 0.81623
  -3  -6   6 33.6191 1.13181
  -2  -6   6 57.0863 1.39570
  -1  -6   6 188.464 2.48896
   0  -6   6 15.5671 0.85877
   1  -6   6 45.9073 1.52492
   2  -6   6 114.451 2.17767
   3  -6   6 77.2239 1.82634
   4  -6   6 85.4765 2.60742
   5  -6   6 12.1680 1.72865
   6  -6   6 16.7923 2.35956
  -8  -5   6 17.0448 1.12155
  -7  -5   6 94.7453 2.06501
  -6  -5   6 36.8899 1.17321
  -5  -5   6 298.867 2.90756
  -4  -5   6 99.3209 1.46995
  -3  -5   6 27.1967 0.77166
  -2  -5   6 315.695 2.62508
  -1  -5   6 342.854 3.06706
   0  -5   6 786.235 5.91598
   1  -5   6 24.5679 1.06204
   2  -5   6 19.7408 0.96697
   3  -5   6 0.48730 0.36720
   4  -5   6 3.80804 1.72972
   5  -5   6 0.99967 0.68067
   6  -5   6 3.43136 1.41113
   7  -5   6 5.39322 2.42213
  -8  -4   6 1.84027 0.58673
  -7  -4   6 4.89526 0.71202
  -6  -4   6 2.28146 0.44940
  -5  -4   6 0.46449 0.30008
  -4  -4   6 69.6114 1.38962
  -3  -4   6 58.2695 0.89084
  -2  -4   6 37.5448 0.73670
  -1  -4   6 428.973 2.79515
   0  -4   6 1.87004 0.35083
   1  -4   6 242.922 2.69941
   2  -4   6 19.5242 0.74696
   3  -4   6 55.0077 1.05855
   4  -4   6 204.489 3.64927
   5  -4   6 67.9045 1.88532
   6  -4   6 7.95696 1.03470
   7  -4   6 13.4662 1.84994
   8  -4   6 246.646 6.06193
  -8  -3   6 2.54166 0.61080
  -7  -3   6 17.4664 1.00089
  -6  -3   6 4.16093 0.48615
  -5  -3   6 74.1152 1.27709
  -4  -3   6 52.7344 1.20349
  -3  -3   6 253.172 1.92579
  -2  -3   6 40.7119 0.81791
  -1  -3   6 112.170 1.07977
   0  -3   6 62.3442 0.81411
   1  -3   6 14.2819 1.73733
   2  -3   6 25.7848 0.59563
   3  -3   6 6.28935 0.33197
   4  -3   6 14.4056 0.75561
   5  -3   6 204.077 2.31758
   6  -3   6 145.655 2.33176
   7  -3   6 12.3429 1.34261
   8  -3   6 14.2374 1.46113
  -9  -2   6 53.4080 2.17017
  -8  -2   6 10.4915 0.89085
  -7  -2   6 0.61296 0.50502
  -6  -2   6 114.541 1.76285
  -5  -2   6 460.202 3.54917
  -4  -2   6 2.19019 0.42432
  -3  -2   6 5.20465 0.33660
  -2  -2   6 210.996 1.83513
  -1  -2   6 21.9279 0.44946
   0  -2   6 8.26571 0.25445
   1  -2   6 293.917 2.27132
   2  -2   6 4.79856 0.25563
   3  -2   6 388.551 2.57095
   4  -2   6 22.1906 0.62371
   5  -2   6 376.204 3.24835
   6  -2   6 199.563 2.66984
   7  -2   6 23.9126 1.19148
   8  -2   6 235.227 3.70581
   9  -2   6 2.02331 1.27026
  -9  -1   6 8.00634 1.14772
  -8  -1   6 36.8913 1.44333
  -7  -1   6 16.8727 0.89080
  -6  -1   6 13.2667 0.73162
  -5  -1   6 334.416 2.77780
  -4  -1   6 18.5177 0.90471
  -3  -1   6 34.0441 0.75626
  -2  -1   6 446.942 3.07229
  -1  -1   6 2.21893 0.21587
   0  -1   6 27.3149 0.49176
   1  -1   6 52.8302 1.55572
   2  -1   6 0.73364 0.19058
   3  -1   6 36.4791 0.67484
   4  -1   6 29.0126 0.85609
   5  -1   6 4.23926 0.32132
   6  -1   6 22.6790 1.00429
   7  -1   6 0.92137 0.43445
   8  -1   6 13.0807 0.99273
   9  -1   6 73.8928 2.60328
  -9   0   6 2.29019 0.86040
  -8   0   6 13.9221 0.99193
  -7   0   6 9.07334 0.81387
  -6   0   6 52.5274 1.30494
  -5   0   6 0.19966 0.27116
  -4   0   6 1.54180 0.34684
  -3   0   6 82.4267 1.18341
  -2   0   6 70.5428 1.01582
  -1   0   6 306.120 2.02523
   0   0   6 0.62594 0.15524
   1   0   6 284.261 2.59211
   2   0   6 191.178 1.71110
   3   0   6 108.876 1.33227
   4   0   6 103.276 1.55387
   5   0   6 41.2651 0.78833
   6   0   6 41.7029 1.15139
   7   0   6 1.34732 0.44859
   8   0   6 82.8641 2.27133
   9   0   6 10.0046 1.27105
  -8   1   6 4.42086 0.72956
  -7   1   6 0.12894 0.51457
  -6   1   6 26.5097 1.01348
  -5   1   6 363.264 3.00299
  -4   1   6 187.388 1.96463
  -3   1   6 93.8526 1.18839
  -2   1   6 127.543 1.38703
  -1   1   6 2.20504 0.18016
   0   1   6 2.93111 0.24063
   1   1   6 0.60935 0.26011
   2   1   6 505.406 3.49008
   3   1   6 437.097 3.57500
   4   1   6 31.2296 2.21668
   5   1   6 226.106 2.24580
   6   1   6 19.4128 0.77849
   7   1   6 4.49731 0.58874
   8   1   6 16.5523 1.21888
   9   1   6 11.5562 1.20900
  10   1   6 9.65214 1.16847
  -8   2   6 8.88516 0.92336
  -7   2   6 19.1739 1.01734
  -6   2   6 27.2850 1.03183
  -5   2   6 124.337 1.66091
  -4   2   6 124.887 1.42395
  -3   2   6 5.67297 0.34458
  -2   2   6 381.320 2.77400
  -1   2   6 284.109 2.04664
   0   2   6 0.34558 0.15817
   1   2   6 117.585 2.26314
   2   2   6 189.212 1.74628
   3   2   6 427.753 3.36335
   4   2   6 495.675 5.12448
   5   2   6 112.494 1.53790
   6   2   6 123.979 1.69979
   7   2   6 152.368 2.42174
   8   2   6 21.5742 1.25679
   9   2   6 8.38939 1.26253
  10   2   6 16.3834 1.44589
  -8   3   6 5.64546 0.85474
  -7   3   6 2.49265 0.72049
  -6   3   6 38.5517 2.14336
  -5   3   6 27.9475 0.91354
  -4   3   6 158.597 1.75055
  -3   3   6 106.580 16.9632
  -2   3   6 341.103 2.50475
  -1   3   6 0.31440 0.14856
   0   3   6 24.8453 0.53374
   1   3   6 355.127 2.70070
   2   3   6 29.9698 0.74188
   3   3   6 19.9498 0.75823
   4   3   6 79.4611 1.87347
   5   3   6 4.75078 0.38186
   6   3   6 333.755 2.92879
   7   3   6 15.0761 0.89435
   8   3   6 1.44016 0.56717
   9   3   6 13.0059 1.29558
  10   3   6 0.78350 0.73634
  -8   4   6 3.02790 0.79053
  -7   4   6 22.0385 1.90578
  -6   4   6 1.02246 0.42934
  -5   4   6 1.67712 0.39767
  -4   4   6 110.457 1.67193
  -3   4   6 1.96363 0.27756
  -2   4   6 157.318 1.50280
  -1   4   6 409.672 2.55195
   0   4   6 39.0490 0.65113
   1   4   6 162.638 2.64867
   2   4   6 145.968 1.37731
   3   4   6 89.8527 1.15576
   4   4   6 61.3618 1.33781
   5   4   6 812.153 4.99221
   6   4   6 131.093 1.88016
   7   4   6 122.532 2.17651
   8   4   6 4.28380 0.72661
   9   4   6 0.63886 1.01658
  10   4   6 24.8259 1.78843
  -7   5   6 7.15137 1.38232
  -6   5   6 11.2731 0.81070
  -5   5   6 1.03700 0.41210
  -4   5   6 1.77192 0.85273
  -3   5   6 7.95471 0.46769
  -2   5   6 41.3300 0.94404
  -1   5   6 40.1495 0.82689
   0   5   6 78.4358 1.25836
   1   5   6 247.826 2.30793
   2   5   6 33.4673 0.71739
   3   5   6 3.91844 0.34520
   4   5   6 25.6397 0.96531
   5   5   6 89.0994 1.32608
   6   5   6 16.9373 0.86594
   7   5   6 27.1164 1.09959
   8   5   6 0.41147 0.41642
   9   5   6 4.00220 1.21777
  -7   6   6 16.9247 1.54391
  -6   6   6 43.6248 1.66591
  -5   6   6 132.529 2.15318
  -4   6   6 39.3517 1.24825
  -3   6   6 100.944 1.54699
  -2   6   6 4.80447 0.70215
  -1   6   6 186.554 1.92346
   0   6   6 27.4709 0.93158
   1   6   6 9.19510 1.68183
   2   6   6 99.0754 1.37290
   3   6   6 143.448 1.64222
   4   6   6 43.3273 1.23331
   5   6   6 17.7483 0.83113
   6   6   6 58.7178 1.64592
   7   6   6 15.6397 1.06295
   8   6   6 0.66494 0.48148
   9   6   6 34.2202 2.42298
  -6   7   6 6.53785 0.98045
  -5   7   6 3.42861 0.65318
  -4   7   6 23.9589 1.13090
  -3   7   6 13.7639 0.82817
  -2   7   6 2.24693 0.63542
  -1   7   6 6.88539 0.56497
   0   7   6 0.31904 0.32885
   1   7   6 12.1705 0.92660
   2   7   6 44.8618 1.22058
   3   7   6 8.40109 0.60814
   4   7   6 329.381 4.83796
   5   7   6 0.32418 0.38269
   6   7   6 0.68601 0.47222
   7   7   6 230.556 3.41612
   8   7   6 5.97377 0.81853
   9   7   6 5.71216 1.78130
  -5   8   6 1.19416 0.61633
  -4   8   6 1.41628 0.76935
  -3   8   6 58.0850 1.67118
  -2   8   6 35.6219 1.23868
  -1   8   6 31.1758 1.19249
   0   8   6 5.36139 0.62119
   1   8   6 30.5853 1.36911
   2   8   6 477.379 4.85083
   3   8   6 72.7668 1.77281
   4   8   6 108.301 2.45741
   5   8   6 8.93906 0.94261
   6   8   6 8.84273 0.97092
   7   8   6 8.11701 1.22199
   8   8   6 9.74523 1.01704
  -4   9   6 17.8527 1.50525
  -3   9   6 23.0699 1.26014
  -2   9   6 112.598 2.28171
  -1   9   6 6.94041 0.70259
   0   9   6 87.7036 2.05163
   1   9   6 4.71644 0.76371
   2   9   6 76.9125 1.93192
   3   9   6 48.3032 1.58485
   4   9   6 22.2203 2.03097
   5   9   6 0.98284 0.62884
   6   9   6 2.15743 0.85368
   7   9   6 40.8663 2.36753
   8   9   6 20.4783 1.71376
  -3  10   6 40.0063 1.81175
  -2  10   6 75.7427 2.22206
  -1  10   6 52.7758 1.73789
   0  10   6 42.9037 1.72199
   1  10   6 0.40841 1.13323
   2  10   6 253.541 3.68504
   3  10   6 46.9635 1.87045
   4  10   6 4.07974 1.04861
   5  10   6 14.5848 1.28887
   6  10   6 0.59569 0.92197
   7  10   6 0.19351 0.71038
  -1  11   6 32.1632 1.58513
   0  11   6 51.8294 1.89867
   1  11   6 2.26197 1.07903
   2  11   6 9.42867 1.07077
   3  11   6 6.66514 1.00801
   4  11   6 39.5437 2.52973
   5  11   6 2.50387 0.79888
  -3  -9   7 0.58589 0.67028
  -2  -9   7 3.29792 1.33844
  -1  -9   7 7.01031 1.03386
   0  -9   7 23.7108 2.00018
   1  -9   7 0.45544 0.69289
   2  -9   7 2.01663 0.97569
  -5  -8   7 13.5778 1.50609
  -4  -8   7 15.1284 1.25618
  -3  -8   7 95.0505 2.43821
  -2  -8   7 49.1009 2.08317
  -1  -8   7 38.0331 1.67750
   0  -8   7 188.256 3.59005
   1  -8   7 20.7654 1.30892
   2  -8   7 8.34173 1.00290
   3  -8   7 1.82115 1.26346
   4  -8   7 4.92440 1.56632
  -6  -7   7 0.35000 0.71211
  -5  -7   7 38.8628 2.07402
  -4  -7   7 56.0695 1.93751
  -3  -7   7 0.41533 0.46434
  -2  -7   7 38.1980 1.50292
  -1  -7   7 41.6143 1.49127
   0  -7   7 25.0209 1.32673
   1  -7   7 15.3746 1.00909
   2  -7   7 0.83223 0.54549
   3  -7   7 9.46816 3.02845
   4  -7   7 8.40236 1.33669
   5  -7   7 34.8507 2.86867
  -7  -6   7 19.5294 1.50853
  -6  -6   7 22.0221 1.40805
  -5  -6   7 36.5321 1.57529
  -4  -6   7 1.61142 0.53051
  -3  -6   7 1.14259 0.47226
  -2  -6   7 99.3439 2.13660
  -1  -6   7 143.182 2.27858
   0  -6   7 55.1352 1.57020
   1  -6   7 8.98154 0.77566
   2  -6   7 5.06594 0.67108
   3  -6   7 20.1693 1.38371
   4  -6   7 0.65361 0.63757
   5  -6   7 8.19263 1.45838
   6  -6   7 13.0948 2.75824
  -7  -5   7 93.4908 2.33398
  -6  -5   7 0.71738 0.45890
  -5  -5   7 58.7132 1.42402
  -4  -5   7 322.504 3.23542
  -3  -5   7 5.73686 0.56063
  -2  -5   7 415.180 4.25892
  -1  -5   7 76.6061 1.54076
   0  -5   7 397.502 4.11356
   1  -5   7 420.178 4.12963
   2  -5   7 46.5444 1.47651
   3  -5   7 44.5842 1.43215
   4  -5   7 6.51924 0.81700
   5  -5   7 66.6282 3.08790
   6  -5   7 0.00000 1.89776
   7  -5   7 5.56440 1.89361
  -8  -4   7 3.06146 0.97071
  -7  -4   7 0.38264 0.47042
  -6  -4   7 59.7358 1.44760
  -5  -4   7 1.83447 0.71712
  -4  -4   7 129.309 1.70815
  -3  -4   7 7.88623 0.45439
  -2  -4   7 0.79241 0.33159
  -1  -4   7 49.4228 1.00494
   0  -4   7 30.5299 1.30385
   1  -4   7 18.3661 0.85514
   2  -4   7 112.893 1.81790
   3  -4   7 0.55476 1.47839
   4  -4   7 0.52684 0.40442
   5  -4   7 8.20804 0.99139
   6  -4   7 0.00000 2.01726
   7  -4   7 2.28201 1.21059
  -8  -3   7 27.8025 1.52245
  -7  -3   7 66.2310 1.61502
  -6  -3   7 29.4048 1.07779
  -5  -3   7 27.9553 1.87623
  -4  -3   7 1.13491 0.32756
  -3  -3   7 8.72955 0.45350
  -2  -3   7 30.4304 0.67604
  -1  -3   7 43.6311 0.68799
   0  -3   7 339.520 2.65370
   1  -3   7 64.8787 1.21531
   2  -3   7 295.183 2.73759
   3  -3   7 207.046 2.71099
   4  -3   7 7.11378 0.52742
   5  -3   7 9.67762 0.75821
   6  -3   7 0.29339 1.15192
   7  -3   7 0.74900 0.72168
   8  -3   7 1.09003 1.35746
  -8  -2   7 0.29156 0.86836
  -7  -2   7 15.4221 0.88354
  -6  -2   7 1.99029 0.43974
  -5  -2   7 5.11213 0.69129
  -4  -2   7 28.1667 0.85027
  -3  -2   7 15.2492 0.52557
  -2  -2   7 88.8798 1.12571
  -1  -2   7 84.2964 0.91868
   0  -2   7 30.9036 0.51720
   1  -2   7 94.8329 0.88324
   2  -2   7 22.9549 0.52972
   3  -2   7 115.558 1.82780
   4  -2   7 158.864 1.65844
   5  -2   7 45.9594 1.03122
   6  -2   7 65.1903 1.56683
   7  -2   7 0.59137 0.44914
   8  -2   7 160.753 4.10179
   9  -2   7 32.9974 5.29122
  -8  -1   7 35.4602 1.46230
  -7  -1   7 62.4434 1.56172
  -6  -1   7 6.98530 0.60379
  -5  -1   7 7.43701 0.67224
  -4  -1   7 113.595 1.47862
  -3  -1   7 34.1781 0.81297
  -2  -1   7 11.2369 0.55475
  -1  -1   7 504.038 3.17196
   0  -1   7 29.1857 0.65763
   1  -1   7 415.138 2.65527
   2  -1   7 30.9332 0.70552
   3  -1   7 41.6247 0.89176
   4  -1   7 234.028 2.11847
   5  -1   7 172.481 1.76601
   6  -1   7 260.725 4.27156
   7  -1   7 2.91863 0.56022
   8  -1   7 1.44274 0.64112
   9  -1   7 11.0310 1.30897
  -8   0   7 5.93155 1.26569
  -7   0   7 36.5702 1.24173
  -6   0   7 50.0219 1.37786
  -5   0   7 83.3734 1.84221
  -4   0   7 5.23711 0.48719
  -3   0   7 0.37058 0.25159
  -2   0   7 0.98811 0.25972
  -1   0   7 0.57933 0.16468
   0   0   7 425.436 2.96349
   1   0   7 264.060 2.06528
   2   0   7 45.3824 0.88472
   3   0   7 116.249 2.51233
   4   0   7 52.6406 1.00357
   5   0   7 106.980 1.36413
   6   0   7 109.687 2.41200
   7   0   7 2.49841 0.51711
   8   0   7 0.96336 0.59589
   9   0   7 49.3551 2.11937
  -8   1   7 3.81075 0.92631
  -7   1   7 3.63596 0.56323
  -6   1   7 95.3188 1.81613
  -5   1   7 11.9621 0.72583
  -4   1   7 808.885 5.36599
  -3   1   7 9.26815 0.49685
  -2   1   7 0.86394 0.25892
  -1   1   7 98.1762 0.93212
   0   1   7 91.0137 1.23104
   1   1   7 140.320 1.37233
   2   1   7 408.537 3.17612
   3   1   7 27.8605 1.89540
   4   1   7 97.0079 1.60803
   5   1   7 41.5563 0.99090
   6   1   7 202.177 2.48625
   7   1   7 35.7870 1.66289
   8   1   7 14.3002 1.11622
   9   1   7 12.2059 1.24749
  -8   2   7 15.3619 1.63423
  -7   2   7 0.66034 0.43674
  -6   2   7 59.0126 1.47936
  -5   2   7 20.6867 0.85087
  -4   2   7 295.162 2.65011
  -3   2   7 489.460 3.46376
  -2   2   7 94.9419 1.26445
  -1   2   7 88.0518 0.99704
   0   2   7 165.049 1.74862
   1   2   7 117.194 1.27660
   2   2   7 29.8115 0.83852
   3   2   7 194.490 2.63291
   4   2   7 7.44863 0.56524
   5   2   7 24.7198 0.92313
   6   2   7 35.1117 1.29071
   7   2   7 39.0077 1.41302
   8   2   7 2.08143 0.59854
   9   2   7 56.9591 2.23444
  -8   3   7 1.81278 1.06869
  -7   3   7 19.0757 1.03035
  -6   3   7 30.9125 1.14304
  -5   3   7 242.524 2.81453
  -4   3   7 2187.73 11.9577
  -3   3   7 11.4220 0.51399
  -2   3   7 16.0696 0.73303
  -1   3   7 50.4445 0.77006
   0   3   7 137.728 1.33841
   1   3   7 2.04056 0.25731
   2   3   7 33.7908 0.86321
   3   3   7 227.470 3.17489
   4   3   7 103.614 1.62962
   5   3   7 552.568 4.49603
   6   3   7 2.79408 1.92872
   7   3   7 106.703 2.12669
   8   3   7 5.91476 0.80037
   9   3   7 14.2589 1.25396
  -7   4   7 15.3416 1.17114
  -6   4   7 0.44449 0.42943
  -5   4   7 29.1648 1.00749
  -4   4   7 110.914 1.61341
  -3   4   7 0.80505 0.25247
  -2   4   7 20.3682 0.67612
  -1   4   7 52.5454 0.77922
   0   4   7 27.0281 0.57696
   1   4   7 29.9732 0.61805
   2   4   7 126.605 1.38293
   3   4   7 3.51127 0.75648
   4   4   7 306.140 2.90438
   5   4   7 229.224 2.37694
   6   4   7 92.5289 3.01836
   7   4   7 163.385 2.54378
   8   4   7 0.65931 0.52638
   9   4   7 5.78388 0.97080
  -7   5   7 5.50281 0.93303
  -6   5   7 9.31045 0.82311
  -5   5   7 10.6857 1.15989
  -4   5   7 79.3655 1.63369
  -3   5   7 13.1721 0.68852
  -2   5   7 17.5424 0.68327
  -1   5   7 1.86681 0.28959
   0   5   7 11.2336 0.78315
   1   5   7 65.0647 1.03046
   2   5   7 1.24355 0.24176
   3   5   7 182.108 2.54809
   4   5   7 25.7381 0.85890
   5   5   7 0.49489 0.31088
   6   5   7 232.315 4.82277
   7   5   7 123.386 2.14609
   8   5   7 25.2670 1.44382
   9   5   7 39.0299 1.92186
  -6   6   7 1.54481 0.62617
  -5   6   7 8.20941 1.09225
  -4   6   7 73.2232 1.76698
  -3   6   7 0.96472 0.40931
  -2   6   7 122.388 2.64062
  -1   6   7 13.0471 0.68155
   0   6   7 51.0467 1.30380
   1   6   7 35.7810 1.09516
   2   6   7 26.0228 0.87121
   3   6   7 53.9398 2.10432
   4   6   7 113.451 1.64835
   5   6   7 18.6778 0.89420
   6   6   7 1.05108 1.36181
   7   6   7 4.14208 0.61881
   8   6   7 62.7066 1.98442
   9   6   7 5.43546 1.05507
  -6   7   7 0.57779 0.68088
  -5   7   7 31.9745 1.50853
  -4   7   7 5.00314 0.70288
  -3   7   7 72.5079 1.78571
  -2   7   7 10.9856 1.21394
  -1   7   7 143.004 2.19922
   0   7   7 18.9237 1.87382
   1   7   7 62.9411 1.58653
   2   7   7 7.86711 0.66977
   3   7   7 125.995 2.02818
   4   7   7 37.7334 1.29782
   5   7   7 28.8236 1.30475
   6   7   7 11.3392 1.17983
   7   7   7 12.8170 1.11718
   8   7   7 11.8472 1.16673
   9   7   7 10.5770 1.40618
  -5   8   7 0.92302 0.96308
  -4   8   7 6.86162 0.79866
  -3   8   7 1.13550 0.49613
  -2   8   7 2.60763 0.92000
  -1   8   7 0.63666 0.38210
   0   8   7 1.86830 0.67933
   1   8   7 1.27117 0.46153
   2   8   7 153.643 2.56188
   3   8   7 2.98164 1.05997
   4   8   7 93.0839 2.43791
   5   8   7 4.90596 0.77118
   6   8   7 35.2961 1.87675
   7   8   7 8.68380 1.05010
   8   8   7 1.65689 0.92125
  -4   9   7 2.45825 0.70772
  -3   9   7 42.9233 1.75194
  -2   9   7 41.0750 1.75756
  -1   9   7 48.3750 1.58291
   0   9   7 0.95993 0.65461
   1   9   7 164.846 2.74664
   2   9   7 4.86773 0.68372
   3   9   7 23.2275 1.29536
   4   9   7 1.79616 0.59975
   5   9   7 8.63860 1.10391
   6   9   7 10.6242 1.41176
   7   9   7 0.58682 0.62837
  -3  10   7 7.67623 1.00255
  -2  10   7 0.00000 0.95129
  -1  10   7 1.05816 0.53335
   0  10   7 10.7568 1.40087
   1  10   7 37.9939 1.64701
   2  10   7 7.13704 0.85369
   3  10   7 205.651 3.95550
   4  10   7 6.21017 0.91047
   5  10   7 2.28086 0.76663
   6  10   7 0.00000 1.32717
  -1  11   7 54.5129 2.08666
   0  11   7 10.3199 1.35233
   1  11   7 6.01554 0.88959
   2  11   7 49.3653 2.21586
   3  11   7 1.57680 0.93363
   4  11   7 0.27061 0.66404
   5  11   7 54.8488 2.51835
  -1  -9   8 43.9985 6.15928
  -4  -8   8 40.4681 2.01692
  -3  -8   8 29.9656 1.77838
  -2  -8   8 1.33775 0.72206
  -1  -8   8 18.3959 1.39931
   0  -8   8 4.83465 1.38585
   1  -8   8 1.03287 0.70079
   2  -8   8 23.8761 2.56755
   3  -8   8 1.12335 0.89266
  -5  -7   8 0.42687 0.72537
  -4  -7   8 0.52789 0.63244
  -3  -7   8 9.81829 1.52769
  -2  -7   8 18.1467 1.18498
  -1  -7   8 5.60130 0.77783
   0  -7   8 3.86447 1.12683
   1  -7   8 0.20100 0.50743
   2  -7   8 0.00000 1.33436
   3  -7   8 52.7862 2.35113
   4  -7   8 16.7769 1.96300
  -6  -6   8 28.3112 2.17924
  -5  -6   8 1.31666 0.62677
  -4  -6   8 30.3873 1.52228
  -3  -6   8 90.9314 2.64437
  -2  -6   8 0.91218 0.49036
  -1  -6   8 28.1211 1.26983
   0  -6   8 14.2485 1.06910
   1  -6   8 87.0559 2.04697
   2  -6   8 21.7000 1.36708
   3  -6   8 5.91653 0.91763
   4  -6   8 25.0885 1.78325
   5  -6   8 89.7517 5.58604
  -7  -5   8 47.0295 1.94232
  -6  -5   8 0.00000 1.00559
  -5  -5   8 26.1035 1.26798
  -4  -5   8 37.3155 1.52974
  -3  -5   8 42.8851 1.75872
  -2  -5   8 13.4290 0.91086
  -1  -5   8 87.0913 1.81711
   0  -5   8 37.1073 1.41006
   1  -5   8 34.7987 1.29757
   2  -5   8 4.00747 0.88458
   3  -5   8 48.8036 1.67276
   4  -5   8 29.0887 1.57831
   5  -5   8 67.6929 3.32956
   6  -5   8 0.49469 1.28531
  -7  -4   8 126.042 2.63094
  -6  -4   8 129.209 3.12601
  -5  -4   8 1.22753 0.44061
  -4  -4   8 111.390 1.83866
  -3  -4   8 131.443 1.95653
  -2  -4   8 253.463 2.74793
  -1  -4   8 56.3077 1.31425
   0  -4   8 13.4338 1.29935
   1  -4   8 16.8666 0.91221
   2  -4   8 28.0682 1.57061
   3  -4   8 14.6124 0.92382
   4  -4   8 2.72765 0.60186
   5  -4   8 21.1341 1.97827
   6  -4   8 14.2986 1.91926
   7  -4   8 2.07541 1.48014
  -7  -3   8 23.3860 1.11347
  -6  -3   8 110.847 2.13992
  -5  -3   8 2.57150 0.45178
  -4  -3   8 21.7322 0.84561
  -3  -3   8 10.9145 0.77310
  -2  -3   8 29.8654 0.75128
  -1  -3   8 3.00758 0.31609
   0  -3   8 237.921 2.58109
   1  -3   8 741.984 5.40174
   2  -3   8 13.4134 0.97857
   3  -3   8 190.163 2.63944
   4  -3   8 16.5594 0.93593
   5  -3   8 8.36426 1.28907
   6  -3   8 4.38565 1.16370
   7  -3   8 35.2604 2.69227
   8  -3   8 11.8095 3.66680
  -8  -2   8 15.5336 1.22295
  -7  -2   8 9.18782 0.77662
  -6  -2   8 9.51969 0.82064
  -5  -2   8 92.1174 1.63726
  -4  -2   8 23.8634 0.89587
  -3  -2   8 28.3670 0.80264
  -2  -2   8 1.93507 0.28249
  -1  -2   8 16.4046 0.52432
   0  -2   8 36.3596 0.79662
   1  -2   8 0.25930 0.16304
   2  -2   8 131.296 1.41175
   3  -2   8 66.7572 1.10823
   4  -2   8 329.647 3.01756
   5  -2   8 87.3823 1.89733
   6  -2   8 33.9867 1.79788
   7  -2   8 3.97202 0.96961
   8  -2   8 36.6414 5.39697
  -8  -1   8 6.08793 0.94668
  -7  -1   8 14.8026 0.89315
  -6  -1   8 11.8773 0.85673
  -5  -1   8 9.77374 0.66135
  -4  -1   8 0.46357 0.31915
  -3  -1   8 147.777 2.11536
  -2  -1   8 35.1901 0.84375
  -1  -1   8 88.2886 1.07527
   0  -1   8 71.6988 0.96188
   1  -1   8 228.985 1.85439
   2  -1   8 87.6406 1.26243
   3  -1   8 12.8908 0.60342
   4  -1   8 423.541 3.65264
   5  -1   8 13.6645 1.21617
   6  -1   8 0.45217 0.38218
   7  -1   8 13.9907 0.98222
   8  -1   8 76.5487 2.75745
  -8   0   8 9.86646 1.09418
  -7   0   8 101.728 1.93633
  -6   0   8 1.96400 0.70478
  -5   0   8 0.45501 0.34454
  -4   0   8 7.85967 0.56847
  -3   0   8 113.984 1.88221
  -2   0   8 6.25966 0.42612
  -1   0   8 138.823 1.30025
   0   0   8 6.45027 0.38151
   1   0   8 239.865 1.99364
   2   0   8 13.9418 0.58124
   3   0   8 200.058 2.30158
   4   0   8 50.9909 1.22521
   5   0   8 11.6417 0.75657
   6   0   8 84.1663 1.79987
   7   0   8 17.9641 1.06074
   8   0   8 129.578 3.06186
   9   0   8 29.5075 1.84280
  -8   1   8 0.60582 0.78758
  -7   1   8 3.48325 0.60124
  -6   1   8 2.17788 0.78061
  -5   1   8 0.65477 0.36453
  -4   1   8 11.7430 0.68048
  -3   1   8 63.6902 1.68013
  -2   1   8 96.0317 1.41550
  -1   1   8 43.3018 0.70921
   0   1   8 143.901 1.57861
   1   1   8 45.8240 0.91826
   2   1   8 103.841 1.54223
   3   1   8 2.58522 0.38150
   4   1   8 90.9430 1.69674
   5   1   8 78.2532 1.88595
   6   1   8 1.32389 0.36688
   7   1   8 9.66466 0.84562
   8   1   8 31.6575 2.40225
   9   1   8 21.2136 1.66573
  -7   2   8 15.7281 0.98293
  -6   2   8 1.61640 0.74101
  -5   2   8 48.7783 1.36027
  -4   2   8 82.6442 1.52890
  -3   2   8 80.0201 1.85050
  -2   2   8 97.3423 1.30605
  -1   2   8 247.295 2.03450
   0   2   8 1.23669 0.30763
   1   2   8 21.3932 0.70148
   2   2   8 86.7171 1.51894
   3   2   8 33.7113 0.99894
   4   2   8 16.2557 0.86193
   5   2   8 0.45685 0.66462
   6   2   8 47.8664 1.24283
   7   2   8 0.58830 0.44880
   8   2   8 47.6798 1.97133
   9   2   8 2.81038 0.78898
  -7   3   8 5.89077 0.74010
  -6   3   8 55.1662 2.00233
  -5   3   8 53.5942 1.42864
  -4   3   8 1.53225 0.39399
  -3   3   8 3.47699 0.66240
  -2   3   8 57.1595 0.92345
  -1   3   8 0.74712 0.20920
   0   3   8 1.08354 0.38871
   1   3   8 208.604 1.91409
   2   3   8 3.12588 0.41109
   3   3   8 2.09529 0.36706
   4   3   8 8.11477 0.69694
   5   3   8 21.0878 1.70023
   6   3   8 146.126 2.02932
   7   3   8 122.022 2.38895
   8   3   8 4.30095 1.71765
   9   3   8 4.10402 0.89042
  -7   4   8 4.10202 0.84001
  -6   4   8 217.553 3.81303
  -5   4   8 36.4912 1.31119
  -4   4   8 109.372 1.75232
  -3   4   8 39.5610 1.02427
  -2   4   8 11.5566 0.54707
  -1   4   8 176.243 1.58340
   0   4   8 217.198 1.86569
   1   4   8 7.58115 0.39627
   2   4   8 18.4049 0.77324
   3   4   8 69.6466 1.38658
   4   4   8 37.6051 1.17747
   5   4   8 11.0311 1.07354
   6   4   8 267.011 3.37793
   7   4   8 0.88377 0.47256
   8   4   8 125.240 4.01561
   9   4   8 0.59471 0.64346
  -6   5   8 7.04230 0.96773
  -5   5   8 123.471 2.21451
  -4   5   8 13.2990 0.83709
  -3   5   8 16.3407 1.62133
  -2   5   8 112.092 1.68730
  -1   5   8 3.30910 0.36517
   0   5   8 95.9528 1.46124
   1   5   8 23.4488 0.70292
   2   5   8 119.760 1.51592
   3   5   8 60.7915 1.25925
   4   5   8 0.42623 0.34071
   5   5   8 75.1122 1.92306
   6   5   8 128.830 2.37108
   7   5   8 209.816 2.96620
   8   5   8 12.5994 3.10485
   9   5   8 33.6168 1.79591
  -6   6   8 10.1826 1.39494
  -5   6   8 1.10453 0.48941
  -4   6   8 6.74378 0.73285
  -3   6   8 26.5781 1.38357
  -2   6   8 57.8932 1.54541
  -1   6   8 90.9894 1.65770
   0   6   8 159.843 2.22440
   1   6   8 6.83266 0.58090
   2   6   8 55.5141 1.41078
   3   6   8 103.212 1.81441
   4   6   8 70.1904 1.54940
   5   6   8 17.4463 1.83545
   6   6   8 0.40638 0.44829
   7   6   8 36.2629 1.58185
   8   6   8 16.6455 2.57089
   9   6   8 8.01814 1.25277
  -5   7   8 2.16267 0.62553
  -4   7   8 0.64588 0.49798
  -3   7   8 57.0974 2.02406
  -2   7   8 70.3131 1.73142
  -1   7   8 0.87153 0.40636
   0   7   8 17.1771 1.10517
   1   7   8 47.9123 1.48315
   2   7   8 140.216 2.51901
   3   7   8 11.1217 0.81935
   4   7   8 78.7111 1.85160
   5   7   8 3.26622 0.91814
   6   7   8 78.9373 2.33879
   7   7   8 54.7434 2.23019
   8   7   8 202.551 5.06547
  -4   8   8 19.4902 1.28188
  -3   8   8 47.3158 1.57074
  -2   8   8 66.9486 1.87776
  -1   8   8 15.2185 0.98498
   0   8   8 5.90016 0.83609
   1   8   8 84.1846 1.93775
   2   8   8 57.5616 1.55088
   3   8   8 346.572 4.08964
   4   8   8 35.2959 1.60142
   5   8   8 5.99875 1.32875
   6   8   8 97.4235 3.14981
   7   8   8 16.9391 1.60708
   8   8   8 13.7277 2.14825
  -3   9   8 5.88241 1.15683
  -2   9   8 11.4046 0.95923
  -1   9   8 9.43941 0.90911
   0   9   8 6.50352 1.05745
   1   9   8 41.0210 1.57762
   2   9   8 17.8062 1.18409
   3   9   8 286.981 4.05977
   4   9   8 2.63891 0.73997
   5   9   8 0.09390 1.82936
   6   9   8 1.54549 0.81692
   7   9   8 57.8407 2.93770
  -2  10   8 24.2895 1.54660
  -1  10   8 0.42128 0.52512
   0  10   8 6.29174 1.19373
   1  10   8 26.4073 1.45734
   2  10   8 15.3018 1.24188
   3  10   8 99.3698 2.81944
   4  10   8 33.5010 2.02117
   5  10   8 24.1746 2.75358
   6  10   8 10.9747 1.54553
   0  11   8 9.38751 1.02278
   1  11   8 21.6534 1.47855
   2  11   8 21.3683 1.80001
   3  11   8 23.7213 1.66367
   4  11   8 42.1093 2.41497
  -2  -8   9 0.73048 0.73783
  -1  -8   9 32.9746 1.89370
   0  -8   9 35.6373 1.94700
   1  -8   9 6.44396 1.09990
  -4  -7   9 20.2961 2.20826
  -3  -7   9 12.3635 1.19825
  -2  -7   9 14.6731 1.19093
  -1  -7   9 78.8252 2.40475
   0  -7   9 0.75907 0.64922
   1  -7   9 60.1127 2.24455
   2  -7   9 7.13288 1.75517
   3  -7   9 26.0921 1.96010
  -5  -6   9 3.16879 0.81439
  -4  -6   9 2.07386 1.55659
  -3  -6   9 9.65405 1.00721
  -2  -6   9 22.6560 1.29846
  -1  -6   9 44.8772 1.84742
   0  -6   9 6.31713 0.79642
   1  -6   9 1.55406 0.57531
   2  -6   9 7.27241 1.20079
   3  -6   9 2.84820 0.85334
   4  -6   9 50.1323 4.64689
   5  -6   9 1.99440 1.29540
  -6  -5   9 19.7910 1.60690
  -5  -5   9 10.7747 1.06911
  -4  -5   9 34.5921 1.66003
  -3  -5   9 104.270 2.53900
  -2  -5   9 13.3825 0.99214
  -1  -5   9 4.11352 0.75503
   0  -5   9 58.8919 1.84570
   1  -5   9 116.143 2.31565
   2  -5   9 23.4376 1.66302
   3  -5   9 8.95740 0.88802
   4  -5   9 0.00000 1.75386
   5  -5   9 3.10959 1.35140
   6  -5   9 6.44360 1.94918
  -6  -4   9 107.549 2.45472
  -5  -4   9 78.9056 2.00904
  -4  -4   9 58.6347 2.37530
  -3  -4   9 188.609 3.01496
  -2  -4   9 3.80833 0.62159
  -1  -4   9 7.03790 0.85963
   0  -4   9 20.2899 1.02693
   1  -4   9 381.964 4.04200
   2  -4   9 5.75264 0.92910
   3  -4   9 130.721 2.40384
   4  -4   9 7.23711 1.21254
   5  -4   9 16.2062 1.79530
   6  -4   9 19.5431 2.46263
  -7  -3   9 18.0630 1.20438
  -6  -3   9 6.39022 0.93050
  -5  -3   9 1.38879 0.48175
  -4  -3   9 11.1273 0.93135
  -3  -3   9 5.73281 0.53314
  -2  -3   9 2.88227 0.40630
  -1  -3   9 3.22685 0.79756
   0  -3   9 21.4342 0.98214
   1  -3   9 586.222 5.01948
   2  -3   9 22.2606 1.23775
   3  -3   9 203.248 2.91029
   4  -3   9 14.9348 1.34843
   5  -3   9 1.08355 0.71025
   6  -3   9 54.3492 3.28807
   7  -3   9 0.00000 1.96315
  -7  -2   9 1.73010 0.58694
  -6  -2   9 1.05312 0.53767
  -5  -2   9 5.98107 0.60991
  -4  -2   9 6.03718 0.68483
  -3  -2   9 152.625 1.90341
  -2  -2   9 0.80589 0.28431
  -1  -2   9 17.9840 1.05395
   0  -2   9 0.28517 0.21893
   1  -2   9 342.674 2.83721
   2  -2   9 55.9276 1.18789
   3  -2   9 3.56771 0.52794
   4  -2   9 19.5489 1.43725
   5  -2   9 0.57725 0.52092
   6  -2   9 3.64819 1.10260
   7  -2   9 15.0152 2.77809
   8  -2   9 1.93841 1.75612
  -7  -1   9 58.8251 1.66697
  -6  -1   9 116.823 2.02571
  -5  -1   9 0.39191 0.35736
  -4  -1   9 40.9519 1.19370
  -3  -1   9 42.0127 1.11788
  -2  -1   9 13.2412 0.59211
  -1  -1   9 6.02771 0.51041
   0  -1   9 7.45330 0.41052
   1  -1   9 193.883 1.78148
   2  -1   9 139.415 1.74354
   3  -1   9 129.668 1.74444
   4  -1   9 126.720 2.31112
   5  -1   9 26.3430 1.09544
   6  -1   9 0.72770 0.49253
   7  -1   9 8.77115 1.49624
   8  -1   9 0.27273 0.95461
  -7   0   9 15.8490 0.97378
  -6   0   9 2.51549 0.61559
  -5   0   9 4.92674 0.56860
  -4   0   9 37.8161 1.11815
  -3   0   9 33.9978 1.03544
  -2   0   9 67.1364 1.25896
  -1   0   9 6.08253 0.50862
   0   0   9 137.552 1.42309
   1   0   9 73.3557 1.13950
   2   0   9 65.0198 1.24012
   3   0   9 4.47831 0.47806
   4   0   9 227.142 2.92873
   5   0   9 48.2364 1.29902
   6   0   9 42.1039 1.46884
   7   0   9 2.47840 0.80136
   8   0   9 1.06958 0.66592
  -7   1   9 0.88284 0.55554
  -6   1   9 0.77814 0.57336
  -5   1   9 2.70033 0.50183
  -4   1   9 4.76762 0.90149
  -3   1   9 30.9955 1.02916
  -2   1   9 62.4484 1.25849
  -1   1   9 11.6928 0.50604
   0   1   9 51.9365 0.86217
   1   1   9 275.324 2.36683
   2   1   9 32.4100 1.08094
   3   1   9 143.168 2.13367
   4   1   9 40.2671 1.65655
   5   1   9 35.4167 1.26481
   6   1   9 103.339 2.25793
   7   1   9 17.1601 1.75334
   8   1   9 33.9496 1.68543
   9   1   9 22.8029 1.68662
  -7   2   9 2.97390 0.66455
  -6   2   9 0.93474 0.55806
  -5   2   9 29.3955 1.13274
  -4   2   9 13.6684 1.01237
  -3   2   9 37.2661 1.12432
  -2   2   9 44.9514 1.00473
  -1   2   9 30.1332 0.69271
   0   2   9 43.4799 0.87628
   1   2   9 423.766 3.16455
   2   2   9 107.178 1.56299
   3   2   9 85.9511 1.55669
   4   2   9 280.507 4.36281
   5   2   9 142.886 2.52006
   6   2   9 3.57277 0.53756
   7   2   9 1.08982 0.64429
   8   2   9 0.58080 0.51844
   9   2   9 24.9824 1.62582
  -7   3   9 14.9824 1.13063
  -6   3   9 181.872 2.70001
  -5   3   9 153.982 2.31806
  -4   3   9 6.48443 0.72244
  -3   3   9 456.517 3.81089
  -2   3   9 0.45060 0.27916
  -1   3   9 18.6599 0.65863
   0   3   9 27.2114 0.77614
   1   3   9 35.9879 0.92826
   2   3   9 64.6795 1.35570
   3   3   9 78.6661 1.54755
   4   3   9 35.2985 1.62931
   5   3   9 85.6470 1.94800
   6   3   9 69.4050 1.76911
   7   3   9 1.17658 0.69930
   8   3   9 15.7805 1.22373
   9   3   9 22.4494 1.56368
  -6   4   9 169.396 2.94542
  -5   4   9 201.853 2.82635
  -4   4   9 15.0333 0.97155
  -3   4   9 2.85562 0.47027
  -2   4   9 86.4852 1.44280
  -1   4   9 126.430 1.69928
   0   4   9 18.8469 0.68049
   1   4   9 32.0894 0.82437
   2   4   9 13.7215 0.84389
   3   4   9 198.143 2.49841
   4   4   9 9.83000 1.03762
   5   4   9 3.56344 0.57806
   6   4   9 2.29244 0.60143
   7   4   9 87.1088 2.82046
   8   4   9 44.8220 1.97359
   9   4   9 118.864 3.23397
  -6   5   9 1.79379 0.81289
  -5   5   9 7.92287 0.82614
  -4   5   9 67.7383 2.12547
  -3   5   9 84.4188 1.88706
  -2   5   9 0.17516 0.32874
  -1   5   9 29.8095 1.04342
   0   5   9 35.0003 1.16647
   1   5   9 1.96494 0.37344
   2   5   9 1.24095 0.45794
   3   5   9 69.4891 1.45573
   4   5   9 758.471 6.87621
   5   5   9 54.7596 1.58003
   6   5   9 7.93941 0.86373
   7   5   9 2.22342 1.15301
   8   5   9 87.3170 2.97107
   9   5   9 1.11320 0.91836
  -5   6   9 5.10357 0.75073
  -4   6   9 0.78549 1.04563
  -3   6   9 61.3255 1.84590
  -2   6   9 1.61558 0.48653
  -1   6   9 8.80657 0.79209
   0   6   9 20.7249 0.99782
   1   6   9 0.95832 0.38924
   2   6   9 30.0790 1.31313
   3   6   9 4.44348 0.55998
   4   6   9 171.654 2.87647
   5   6   9 37.1358 1.49761
   6   6   9 24.0681 1.49078
   7   6   9 5.47628 1.37332
   8   6   9 81.0280 3.47907
  -5   7   9 0.94778 0.57592
  -4   7   9 33.4315 1.50789
  -3   7   9 3.40600 0.67279
  -2   7   9 0.51391 0.44044
  -1   7   9 2.43747 0.61995
   0   7   9 43.8286 1.59389
   1   7   9 4.06350 0.62472
   2   7   9 10.6213 0.94738
   3   7   9 12.6981 0.90748
   4   7   9 79.0900 2.06871
   5   7   9 1.76223 0.64485
   6   7   9 38.9061 2.00848
   7   7   9 5.42693 1.60666
   8   7   9 5.48401 1.31044
  -4   8   9 49.7370 2.04694
  -3   8   9 1.62998 0.61041
  -2   8   9 47.5105 1.75612
  -1   8   9 20.8068 1.39843
   0   8   9 8.89705 0.89404
   1   8   9 24.1087 1.21189
   2   8   9 83.3636 2.10253
   3   8   9 15.3939 1.04804
   4   8   9 1.41333 0.91080
   5   8   9 0.54527 0.61450
   6   8   9 14.2744 1.43486
   7   8   9 4.01509 1.24903
  -3   9   9 2.67646 0.74644
  -2   9   9 2.90328 0.69332
  -1   9   9 6.55125 1.54756
   0   9   9 36.8018 1.67199
   1   9   9 152.868 2.88940
   2   9   9 14.5688 1.24145
   3   9   9 18.5731 1.27245
   4   9   9 35.5547 1.88513
   5   9   9 2.77074 0.83881
   6   9   9 2.28374 0.87339
  -1  10   9 0.00000 1.10769
   0  10   9 1.68085 0.63148
   1  10   9 35.6058 1.88298
   2  10   9 15.9846 1.47465
   3  10   9 5.64965 0.94726
   4  10   9 61.0849 3.16116
   5  10   9 1.31243 0.71497
  -2  -7  10 18.0063 1.76210
  -1  -7  10 67.2039 2.68194
   0  -7  10 0.40463 0.70894
   1  -7  10 5.05683 1.97675
   2  -7  10 16.0871 1.65090
  -4  -6  10 42.0124 2.14517
  -3  -6  10 3.59957 0.86608
  -2  -6  10 0.00000 1.21938
  -1  -6  10 23.6677 1.43545
   0  -6  10 13.2209 1.19744
   1  -6  10 13.5415 2.38265
   2  -6  10 102.761 2.94711
   3  -6  10 38.8055 2.25786
   4  -6  10 86.8989 5.49978
  -5  -5  10 1.89164 0.79709
  -4  -5  10 21.6762 1.72091
  -3  -5  10 5.22263 0.84944
  -2  -5  10 165.141 4.10150
  -1  -5  10 89.2679 2.27260
   0  -5  10 59.3254 2.12549
   1  -5  10 4.31805 1.21973
   2  -5  10 13.9088 1.06756
   3  -5  10 130.580 3.15216
   4  -5  10 21.2879 2.84454
   5  -5  10 15.3391 2.29349
  -6  -4  10 101.470 3.93611
  -5  -4  10 81.1739 2.48422
  -4  -4  10 3.99036 0.94369
  -3  -4  10 89.2233 2.39094
  -2  -4  10 0.59254 0.90887
  -1  -4  10 183.215 2.99399
   0  -4  10 13.5407 0.97179
   1  -4  10 3.20396 0.92501
   2  -4  10 1.52116 0.55031
   3  -4  10 13.2384 1.02390
   4  -4  10 64.7352 2.50694
   5  -4  10 1.96378 1.20376
   6  -4  10 68.1171 5.76911
  -6  -3  10 52.9652 1.77026
  -5  -3  10 28.3167 1.34365
  -4  -3  10 187.105 2.90985
  -3  -3  10 71.4258 1.99774
  -2  -3  10 4.77684 1.23607
  -1  -3  10 37.4602 1.48793
   0  -3  10 75.2288 1.85283
   1  -3  10 9.48271 1.24327
   2  -3  10 89.4436 2.01292
   3  -3  10 1.00892 0.50198
   4  -3  10 1.58768 1.06014
   5  -3  10 1.20079 0.94111
   6  -3  10 5.37638 4.19863
  -6  -2  10 10.0294 0.88857
  -5  -2  10 7.49503 0.76587
  -4  -2  10 3.33078 0.59582
  -3  -2  10 2.72644 0.47867
  -2  -2  10 174.193 2.44130
  -1  -2  10 0.39883 0.35615
   0  -2  10 52.8817 1.44055
   1  -2  10 36.3398 1.33989
   2  -2  10 68.2477 1.69080
   3  -2  10 136.424 2.45733
   4  -2  10 60.8146 1.87743
   5  -2  10 2.22264 0.83335
   6  -2  10 1.27739 2.29727
   7  -2  10 12.3965 2.12143
  -6  -1  10 214.793 2.82176
  -5  -1  10 40.7430 1.33899
  -4  -1  10 25.6126 1.02998
  -3  -1  10 0.80199 0.36085
  -2  -1  10 29.1051 1.97723
  -1  -1  10 72.3077 1.24386
   0  -1  10 2.53636 0.34736
   1  -1  10 254.504 2.47715
   2  -1  10 378.273 3.17883
   3  -1  10 124.911 1.78638
   4  -1  10 8.95086 1.06161
   5  -1  10 36.8826 1.66528
   6  -1  10 15.0621 2.48454
   7  -1  10 3.72228 1.83934
  -6   0  10 15.7322 0.94419
  -5   0  10 42.4843 1.37649
  -4   0  10 81.3318 1.65007
  -3   0  10 20.1569 0.88634
  -2   0  10 142.115 1.95915
  -1   0  10 1.02361 0.31482
   0   0  10 45.2692 0.98419
   1   0  10 43.5168 1.15518
   2   0  10 650.183 4.53460
   3   0  10 170.648 2.20719
   4   0  10 14.0346 0.95879
   5   0  10 11.1223 0.79275
   6   0  10 31.8956 2.34964
   7   0  10 46.9141 2.64275
   8   0  10 30.5734 2.52056
  -6   1  10 119.662 2.23969
  -5   1  10 2.03116 0.52131
  -4   1  10 7.77825 0.71983
  -3   1  10 14.7959 0.77718
  -2   1  10 46.4473 1.35552
  -1   1  10 32.3501 1.00017
   0   1  10 2.16945 0.32062
   1   1  10 6.46019 0.71715
   2   1  10 9.55502 0.57156
   3   1  10 170.936 2.29314
   4   1  10 8.11714 0.95623
   5   1  10 111.428 2.11988
   6   1  10 25.3750 1.80104
   7   1  10 0.71135 0.75546
   8   1  10 3.43727 0.91513
  -6   2  10 13.1413 0.95325
  -5   2  10 29.2016 1.22516
  -4   2  10 1.02080 0.45595
  -3   2  10 46.9247 1.29679
  -2   2  10 3.40451 1.14131
  -1   2  10 16.9081 0.75942
   0   2  10 0.39851 0.26123
   1   2  10 32.3892 0.90630
   2   2  10 481.469 3.67324
   3   2  10 84.1669 1.56400
   4   2  10 14.6823 1.10492
   5   2  10 1.15301 0.46969
   6   2  10 41.8430 1.99329
   7   2  10 25.7131 1.78966
   8   2  10 25.5710 1.92057
  -6   3  10 7.13391 0.80999
  -5   3  10 10.0461 0.85271
  -4   3  10 4.37748 0.62637
  -3   3  10 20.4190 0.95945
  -2   3  10 243.842 2.83096
  -1   3  10 270.045 2.61809
   0   3  10 162.784 1.89040
   1   3  10 82.5795 1.51604
   2   3  10 0.40153 0.30960
   3   3  10 3.54527 0.50010
   4   3  10 11.5481 1.24981
   5   3  10 16.8828 1.04042
   6   3  10 0.45240 0.83887
   7   3  10 5.73573 1.11221
   8   3  10 14.9068 1.74149
  -6   4  10 0.63770 0.59090
  -5   4  10 251.738 3.42269
  -4   4  10 2.89254 0.63958
  -3   4  10 3.12783 0.53992
  -2   4  10 31.5267 1.78872
  -1   4  10 57.4499 1.37757
   0   4  10 47.3322 1.22174
   1   4  10 34.6570 2.02819
   2   4  10 144.190 1.83796
   3   4  10 2.01190 0.45896
   4   4  10 0.83424 0.70495
   5   4  10 47.7343 1.54063
   6   4  10 0.49039 1.41583
   7   4  10 31.4062 2.11155
   8   4  10 41.2635 2.53529
  -5   5  10 50.8587 1.93670
  -4   5  10 29.7781 1.42128
  -3   5  10 22.1533 1.14830
  -2   5  10 128.155 2.28865
  -1   5  10 0.32508 0.37647
   0   5  10 20.3545 1.04910
   1   5  10 9.55305 1.03807
   2   5  10 3.56300 0.51856
   3   5  10 38.4171 1.36875
   4   5  10 50.8897 1.73181
   5   5  10 23.9319 1.21894
   6   5  10 0.00000 1.61435
   7   5  10 26.3358 1.95443
   8   5  10 42.2401 2.54495
  -5   6  10 14.1310 1.18312
  -4   6  10 68.2028 2.13530
  -3   6  10 39.0657 1.59212
  -2   6  10 5.39392 0.87459
  -1   6  10 0.83030 0.44155
   0   6  10 4.09279 0.62566
   1   6  10 49.1833 1.43346
   2   6  10 131.219 2.35292
   3   6  10 24.5835 1.24444
   4   6  10 6.66129 1.09903
   5   6  10 0.88700 0.57893
   6   6  10 0.02645 1.70608
   7   6  10 10.4645 1.51072
   8   6  10 21.6726 2.41833
  -4   7  10 11.5740 1.24611
  -3   7  10 19.3995 1.29138
  -2   7  10 111.209 3.21663
  -1   7  10 121.842 2.50615
   0   7  10 1.95469 0.58462
   1   7  10 12.7924 0.92533
   2   7  10 11.4223 0.92348
   3   7  10 152.307 2.75985
   4   7  10 24.0169 1.35473
   5   7  10 43.5214 2.17883
   6   7  10 6.28704 2.02342
   7   7  10 8.63470 1.27349
  -3   8  10 0.18410 0.51797
  -2   8  10 10.3244 1.05992
  -1   8  10 2.33877 0.63281
   0   8  10 87.8496 2.40171
   1   8  10 33.3006 1.41060
   2   8  10 23.1890 1.29070
   3   8  10 9.45649 0.89388
   4   8  10 0.00000 1.63093
   5   8  10 1.60222 0.74060
   6   8  10 53.5938 3.62557
   7   8  10 98.5335 3.59185
  -2   9  10 3.08737 1.17291
  -1   9  10 1.46515 0.62454
   0   9  10 24.4202 1.43696
   1   9  10 144.109 3.07927
   2   9  10 42.6858 1.82799
   3   9  10 13.7315 1.20566
   4   9  10 18.1340 1.99997
   5   9  10 13.5521 1.43420
   6   9  10 0.00000 3.46722
   0  10  10 46.7229 2.09415
   1  10  10 56.1015 2.22651
   2  10  10 5.29273 0.93747
   3  10  10 0.17597 0.67041
   4  10  10 2.52647 2.65577
  -2  -6  11 91.0795 2.95323
  -1  -6  11 2.22202 0.84875
   0  -6  11 6.26825 1.97639
   1  -6  11 11.0662 1.28260
   2  -6  11 30.2623 2.15364
  -4  -5  11 51.3054 2.26644
  -3  -5  11 2.44170 0.85281
  -2  -5  11 9.00305 1.22198
  -1  -5  11 17.7536 1.28750
   0  -5  11 3.25744 1.41789
   1  -5  11 0.49063 0.65230
   2  -5  11 25.4700 1.72790
   3  -5  11 3.24373 1.74671
   4  -5  11 27.1080 2.53693
  -4  -4  11 15.4096 1.27936
  -3  -4  11 8.31541 0.98837
  -2  -4  11 19.0499 1.41192
  -1  -4  11 2.63333 0.67437
   0  -4  11 2.02899 1.02083
   1  -4  11 1.98591 0.66102
   2  -4  11 49.5142 1.92176
   3  -4  11 41.3310 1.94396
   4  -4  11 6.57234 1.28030
   5  -4  11 1.20550 1.31776
  -5  -3  11 154.029 3.30430
  -4  -3  11 4.94095 0.82953
  -3  -3  11 9.31887 0.91509
  -2  -3  11 7.76791 0.99063
  -1  -3  11 51.6132 1.90478
   0  -3  11 49.1588 1.85959
   1  -3  11 21.7247 1.25348
   2  -3  11 2.98424 0.66977
   3  -3  11 156.921 2.92545
   4  -3  11 1.30273 0.76350
   5  -3  11 63.2627 3.69333
   6  -3  11 4.88057 3.97537
  -5  -2  11 1.39037 0.81352
  -4  -2  11 5.47663 0.67974
  -3  -2  11 3.39558 0.64556
  -2  -2  11 3.04403 0.67878
  -1  -2  11 1.89917 0.56831
   0  -2  11 16.4329 2.36953
   1  -2  11 67.5405 1.94165
   2  -2  11 383.358 4.28191
   3  -2  11 74.4782 2.70536
   4  -2  11 33.6677 1.62623
   5  -2  11 1.33255 0.95972
   6  -2  11 12.0522 3.49765
  -6  -1  11 16.0264 1.08336
  -5  -1  11 1.85159 0.77252
  -4  -1  11 11.1350 0.82917
  -3  -1  11 3.12464 0.56993
  -2  -1  11 1.00437 0.45038
  -1  -1  11 2.63017 0.46515
   0  -1  11 31.9642 1.62601
   1  -1  11 39.1907 1.41779
   2  -1  11 5.21127 0.67365
   3  -1  11 9.91019 1.24037
   4  -1  11 22.5085 1.21422
   5  -1  11 3.65075 1.02971
   6  -1  11 6.51687 2.86740
   7  -1  11 2.10812 1.84809
  -6   0  11 1.00422 0.55559
  -5   0  11 24.0934 1.33193
  -4   0  11 36.2362 1.26381
  -3   0  11 15.0034 0.85151
  -2   0  11 29.6838 1.06321
  -1   0  11 2.54764 0.42868
   0   0  11 28.1056 1.05744
   1   0  11 74.2386 1.29799
   2   0  11 15.3694 0.75874
   3   0  11 160.375 2.58037
   4   0  11 0.42389 0.49558
   5   0  11 5.10075 0.85585
   6   0  11 5.83023 2.61742
   7   0  11 85.8921 5.14238
  -6   1  11 31.5392 1.39440
  -5   1  11 36.8082 1.45654
  -4   1  11 14.6936 0.87159
  -3   1  11 1.89775 0.46492
  -2   1  11 44.9942 1.35389
  -1   1  11 1.90052 0.40337
   0   1  11 13.0545 1.27706
   1   1  11 89.1221 1.45035
   2   1  11 192.656 2.35287
   3   1  11 81.4757 2.29830
   4   1  11 23.6671 1.14944
   5   1  11 13.1293 0.95321
   6   1  11 27.2328 1.92766
   7   1  11 8.56303 1.65189
  -6   2  11 1.92993 0.64784
  -5   2  11 0.00000 0.68154
  -4   2  11 0.49171 0.43600
  -3   2  11 97.0838 1.78449
  -2   2  11 6.95645 0.71633
  -1   2  11 118.248 1.78964
   0   2  11 108.834 1.79488
   1   2  11 64.1075 1.37709
   2   2  11 198.782 2.46572
   3   2  11 12.7606 0.86414
   4   2  11 25.5698 1.15270
   5   2  11 64.1726 1.83474
   6   2  11 1.77220 1.33423
   7   2  11 0.79018 0.87438
   8   2  11 6.67968 2.74489
  -5   3  11 0.53248 0.71274
  -4   3  11 2.15096 0.54215
  -3   3  11 11.0944 0.81499
  -2   3  11 32.1960 1.19868
  -1   3  11 105.723 1.73459
   0   3  11 30.5747 1.13741
   1   3  11 69.6518 1.40179
   2   3  11 141.703 2.00339
   3   3  11 147.223 2.58196
   4   3  11 97.5541 2.18746
   5   3  11 4.76866 0.72472
   6   3  11 13.6545 1.46335
   7   3  11 4.92553 1.09502
   8   3  11 13.1369 2.48928
  -5   4  11 10.2027 1.93164
  -4   4  11 0.79899 0.50217
  -3   4  11 12.6225 0.92357
  -2   4  11 0.74101 0.49362
  -1   4  11 25.2782 1.10374
   0   4  11 74.4654 1.73588
   1   4  11 149.965 2.25815
   2   4  11 53.8236 1.45113
   3   4  11 23.2792 1.90044
   4   4  11 19.2058 1.08702
   5   4  11 156.391 2.89365
   6   4  11 8.05532 1.65752
   7   4  11 1.65345 0.97806
   8   4  11 3.50885 2.55599
  -5   5  11 9.05017 2.77195
  -4   5  11 1.04125 0.56942
  -3   5  11 77.0331 1.99276
  -2   5  11 9.12716 0.87290
  -1   5  11 71.5662 1.93210
   0   5  11 167.991 2.87815
   1   5  11 10.8129 0.90151
   2   5  11 48.3621 1.65943
   3   5  11 42.0734 1.48798
   4   5  11 7.15796 0.76753
   5   5  11 3.79385 0.70578
   6   5  11 22.6296 2.22177
   7   5  11 14.1504 1.91951
  -4   6  11 0.55411 0.53677
  -3   6  11 25.5397 1.35685
  -2   6  11 19.6616 1.26489
  -1   6  11 1.86565 0.56727
   0   6  11 14.8263 1.43112
   1   6  11 7.65364 0.83477
   2   6  11 54.9830 1.82023
   3   6  11 125.668 2.76254
   4   6  11 1.04654 0.53061
   5   6  11 119.033 3.30640
   6   6  11 25.4172 2.60940
   7   6  11 1.91787 1.15133
  -3   7  11 63.0129 2.33923
  -2   7  11 8.62020 1.01073
  -1   7  11 11.8486 1.00872
   0   7  11 5.13292 0.82041
   1   7  11 17.2958 1.21186
   2   7  11 0.64828 0.54392
   3   7  11 5.90773 1.86607
   4   7  11 11.6126 1.01685
   5   7  11 63.6100 2.65025
   6   7  11 3.41428 2.31318
   7   7  11 4.53712 1.57610
  -2   8  11 2.43423 0.87968
  -1   8  11 9.32360 0.99791
   0   8  11 21.4981 1.25884
   1   8  11 3.43597 0.76316
   2   8  11 22.0393 1.39203
   3   8  11 4.55418 1.26266
   4   8  11 14.8066 1.39534
   5   8  11 114.946 3.62851
   6   8  11 33.4119 3.58383
  -1   9  11 34.7477 1.79582
   0   9  11 42.7499 1.89606
   1   9  11 17.0242 1.36502
   2   9  11 39.5576 1.97905
   3   9  11 20.3983 1.50062
   4   9  11 0.43546 0.68070
   5   9  11 4.35456 1.06887
  -2  -5  12 6.21916 1.04847
  -1  -5  12 24.4775 1.75755
   0  -5  12 2.01503 1.08094
   1  -5  12 26.7863 1.84266
   2  -5  12 0.00000 1.45040
  -3  -4  12 47.6523 2.66628
  -2  -4  12 13.5334 1.22660
  -1  -4  12 3.68226 0.97186
   0  -4  12 22.9164 1.62553
   1  -4  12 1.95541 0.82466
   2  -4  12 82.6866 3.31575
   3  -4  12 12.3328 1.47632
   4  -4  12 0.65288 1.43021
  -4  -3  12 16.1428 1.38998
  -3  -3  12 52.7093 2.46081
  -2  -3  12 48.0051 1.94169
  -1  -3  12 62.2239 2.17444
   0  -3  12 10.8637 1.16335
   1  -3  12 1.37298 0.70165
   2  -3  12 0.04808 1.11783
   3  -3  12 141.600 3.13721
   4  -3  12 70.0888 3.20514
   5  -3  12 5.96671 2.47980
  -4  -2  12 0.95477 0.69663
  -3  -2  12 11.6064 1.33619
  -2  -2  12 38.0773 1.60075
  -1  -2  12 1.23258 0.57777
   0  -2  12 86.9222 2.40570
   1  -2  12 18.0542 1.23787
   2  -2  12 10.4977 2.14171
   3  -2  12 7.99360 0.94669
   4  -2  12 45.1813 2.21300
   5  -2  12 54.7945 3.81215
  -5  -1  12 12.9311 1.03431
  -4  -1  12 2.71793 0.63802
  -3  -1  12 16.8809 1.12647
  -2  -1  12 1.73663 0.56919
  -1  -1  12 6.40761 0.81501
   0  -1  12 230.153 3.75643
   1  -1  12 35.7515 1.59537
   2  -1  12 15.1237 2.44069
   3  -1  12 144.482 2.81627
   4  -1  12 5.08447 0.82154
   5  -1  12 113.758 5.18285
   6  -1  12 64.1066 4.53551
  -5   0  12 16.5518 1.11027
  -4   0  12 3.22948 0.63366
  -3   0  12 31.8481 1.27755
  -2   0  12 3.00716 0.55628
  -1   0  12 72.7496 1.74494
   0   0  12 1.53442 0.53838
   1   0  12 77.2504 1.84066
   2   0  12 27.5023 1.90600
   3   0  12 8.97448 0.89618
   4   0  12 0.63152 0.56744
   5   0  12 3.47315 1.53594
   6   0  12 0.28938 1.32679
  -5   1  12 150.005 2.65794
  -4   1  12 22.0706 1.12653
  -3   1  12 30.6072 1.28831
  -2   1  12 0.38551 0.37194
  -1   1  12 13.0904 0.77573
   0   1  12 0.76864 0.47661
   1   1  12 279.922 2.92138
   2   1  12 46.0079 1.90358
   3   1  12 31.6968 1.14168
   4   1  12 0.52813 0.45524
   5   1  12 60.4836 2.64167
   6   1  12 0.69665 1.07369
   7   1  12 33.9039 3.81338
  -5   2  12 0.27511 0.52337
  -4   2  12 21.6422 1.16741
  -3   2  12 7.41965 1.01738
  -2   2  12 0.94931 0.41673
  -1   2  12 6.47817 0.60825
   0   2  12 14.7763 0.82056
   1   2  12 15.4387 0.78701
   2   2  12 19.8197 1.11220
   3   2  12 138.533 2.12364
   4   2  12 35.3065 1.26496
   5   2  12 53.9988 2.31749
   6   2  12 0.16786 0.68257
   7   2  12 3.96257 2.11446
  -4   3  12 2.02011 0.61959
  -3   3  12 2.99642 0.85879
  -2   3  12 1.17876 0.46662
  -1   3  12 1.29408 0.47415
   0   3  12 28.8977 1.10244
   1   3  12 43.9433 1.35673
   2   3  12 145.702 2.50539
   3   3  12 17.7801 0.90552
   4   3  12 15.1882 0.92758
   5   3  12 76.6503 2.53503
   6   3  12 28.6193 2.04965
   7   3  12 26.9477 2.18455
  -4   4  12 9.84519 0.93169
  -3   4  12 1.35751 0.83980
  -2   4  12 32.2754 1.39040
  -1   4  12 0.11211 0.38594
   0   4  12 184.258 3.00358
   1   4  12 27.6914 1.33141
   2   4  12 64.1987 1.92322
   3   4  12 44.1879 1.57385
   4   4  12 1.79787 0.56562
   5   4  12 9.98238 2.07264
   6   4  12 11.9227 1.33139
   7   4  12 2.95548 1.29532
  -4   5  12 8.66013 0.98870
  -3   5  12 23.6882 1.63947
  -2   5  12 1.74619 0.53795
  -1   5  12 51.1355 1.68158
   0   5  12 18.7709 1.16025
   1   5  12 15.1596 1.10837
   2   5  12 196.544 3.50905
   3   5  12 0.81348 0.55442
   4   5  12 50.8614 1.87025
   5   5  12 17.3532 1.39581
   6   5  12 18.9165 1.71968
   7   5  12 21.8421 2.26074
  -3   6  12 44.4625 2.19274
  -2   6  12 2.86671 0.68475
  -1   6  12 8.20300 0.90069
   0   6  12 18.2684 1.18931
   1   6  12 16.5177 1.19658
   2   6  12 121.742 2.61639
   3   6  12 198.605 3.37428
   4   6  12 7.97264 0.95476
   5   6  12 27.9817 3.01192
   6   6  12 12.9108 1.66426
  -2   7  12 1.57603 0.66422
  -1   7  12 2.20626 0.69514
   0   7  12 18.7293 1.26049
   1   7  12 11.7506 1.08607
   2   7  12 7.34206 1.02262
   3   7  12 74.2530 2.35892
   4   7  12 2.64047 0.84869
   5   7  12 0.58497 1.76355
   6   7  12 4.33861 1.21619
  -1   8  12 0.49985 0.64162
   0   8  12 8.74072 1.07713
   1   8  12 8.99152 1.08465
   2   8  12 90.2267 2.96674
   3   8  12 0.84505 0.67076
   4   8  12 28.7399 1.96007
   5   8  12 3.01028 1.32818
   2   9  12 3.52435 1.15591
   0  -4  13 1.79771 0.85185
   1  -4  13 39.5157 2.21678
  -2  -3  13 47.4098 2.14282
  -1  -3  13 1.34575 1.13068
   0  -3  13 102.627 2.97159
   1  -3  13 1.50563 0.97604
   2  -3  13 18.3034 1.59798
   3  -3  13 3.69110 1.08777
  -3  -2  13 1.48615 0.77307
  -2  -2  13 38.7055 1.81262
  -1  -2  13 10.1570 1.53630
   0  -2  13 3.23837 0.76068
   1  -2  13 15.1536 1.41230
   2  -2  13 7.75864 1.13290
   3  -2  13 7.61945 1.15000
   4  -2  13 7.43166 1.72844
  -3  -1  13 47.3357 2.03812
  -2  -1  13 5.59678 0.91137
  -1  -1  13 50.1872 2.04861
   0  -1  13 165.629 2.98138
   1  -1  13 24.6287 1.47916
   2  -1  13 2.91900 0.83759
   3  -1  13 0.56287 0.61605
   4  -1  13 172.056 4.36364
   5  -1  13 3.46479 1.60085
  -4   0  13 5.78737 0.96879
  -3   0  13 5.21709 0.75894
  -2   0  13 5.18292 0.78816
  -1   0  13 26.1719 1.57262
   0   0  13 7.86516 0.87687
   1   0  13 237.645 3.85166
   2   0  13 61.3120 2.17157
   3   0  13 1.34509 0.68780
   4   0  13 3.85334 1.27845
   5   0  13 0.90005 1.26631
  -4   1  13 16.5884 1.32769
  -3   1  13 1.23957 0.58658
  -2   1  13 6.95479 0.81828
  -1   1  13 39.6613 1.42394
   0   1  13 4.17106 0.61134
   1   1  13 120.277 2.24276
   2   1  13 13.1179 1.09574
   3   1  13 20.2470 1.25484
   4   1  13 31.8276 1.82016
   5   1  13 3.98494 0.97096
   6   1  13 32.1843 3.50151
  -4   2  13 0.78614 0.79080
  -3   2  13 6.95153 0.77968
  -2   2  13 1.31715 0.51277
  -1   2  13 16.9618 1.19746
   0   2  13 35.0750 1.24563
   1   2  13 40.2705 1.27162
   2   2  13 3.57942 0.68433
   3   2  13 0.49897 0.41510
   4   2  13 24.0778 1.72482
   5   2  13 26.1042 1.51790
   6   2  13 23.6298 3.38990
  -3   3  13 16.1142 1.13501
  -2   3  13 39.5105 1.60713
  -1   3  13 5.29617 0.96763
   0   3  13 129.998 2.33175
   1   3  13 62.5311 1.72378
   2   3  13 28.6288 1.32023
   3   3  13 48.3820 1.55781
   4   3  13 40.4102 1.78488
   5   3  13 2.34053 0.65343
   6   3  13 3.27903 1.09822
  -3   4  13 1.06566 0.62379
  -2   4  13 30.5509 1.47123
  -1   4  13 5.32673 1.16097
   0   4  13 57.8833 1.79906
   1   4  13 182.883 3.01908
   2   4  13 13.5213 1.15039
   3   4  13 0.87195 0.54956
   4   4  13 3.87477 1.31760
   5   4  13 2.76903 0.70139
   6   4  13 15.2085 2.10875
  -2   5  13 76.7059 2.11263
  -1   5  13 23.4301 1.30622
   0   5  13 28.1167 1.34288
   1   5  13 64.2842 2.03882
   2   5  13 86.5415 2.29850
   3   5  13 150.017 3.04186
   4   5  13 4.44923 1.09057
   5   5  13 0.52821 0.68395
   6   5  13 7.88283 1.47163
  -2   6  13 8.10985 0.97745
  -1   6  13 1.14561 0.83095
   0   6  13 0.75452 0.51420
   1   6  13 29.1359 1.61780
   2   6  13 90.0686 2.50159
   3   6  13 10.0474 1.06544
   4   6  13 11.9678 2.40283
   5   6  13 19.3018 1.82837
  -1   7  13 10.0664 1.67119
   0   7  13 29.6576 1.63942
   1   7  13 85.4068 2.68370
   2   7  13 1.44746 0.77878
   3   7  13 11.7740 1.18541
   4   7  13 0.82503 1.19342
   2   8  13 1.05763 1.23659
   0  -2  14 1.92599 0.84816
   1  -2  14 9.53613 2.53691
   2  -2  14 2.65265 0.89625
  -1  -1  14 31.7074 1.70865
   0  -1  14 33.1038 1.68398
   1  -1  14 50.9664 2.08055
   2  -1  14 5.40436 1.01719
   3  -1  14 18.8414 1.65906
  -2   0  14 46.5335 2.02995
  -1   0  14 42.0422 1.95010
   0   0  14 11.5104 1.14413
   1   0  14 5.70770 1.31001
   2   0  14 10.6992 1.13660
   3   0  14 4.92934 1.05689
   4   0  14 0.31907 0.89514
  -2   1  14 26.7438 1.65915
  -1   1  14 12.0501 1.22681
   0   1  14 8.17920 1.01309
   1   1  14 18.4471 1.62402
   2   1  14 38.8337 1.71361
   3   1  14 28.0126 1.73454
   4   1  14 29.4269 1.89792
  -2   2  14 7.35721 1.24080
  -1   2  14 81.4109 2.27421
   0   2  14 18.5391 1.19694
   1   2  14 122.934 3.34690
   2   2  14 36.2972 1.61043
   3   2  14 1.83188 0.77422
   4   2  14 19.9759 1.59426
   5   2  14 4.44034 1.10948
  -2   3  14 3.14571 1.16296
  -1   3  14 7.67989 0.86696
   0   3  14 20.0298 1.19168
   1   3  14 3.35129 0.92050
   2   3  14 41.9629 1.69939
   3   3  14 8.86964 0.96984
   4   3  14 0.44260 0.71264
   5   3  14 11.1013 1.32687
  -1   4  14 25.6968 1.38933
   0   4  14 17.0629 1.15525
   1   4  14 6.16354 0.89854
   2   4  14 25.7347 1.39352
   3   4  14 99.2956 2.61877
   4   4  14 46.8985 2.10577
   5   4  14 4.96850 3.59249
  -1   5  14 9.35785 0.95608
   0   5  14 2.83593 0.67033
   1   5  14 2.87991 1.32652
   2   5  14 14.7082 1.21035
   3   5  14 51.7352 2.00498
   4   5  14 8.86291 1.12426
   0   6  14 45.8843 7.40463
   1   6  14 101.063 2.63325
   2   6  14 0.57218 0.70243
   3   6  14 21.3273 1.60877
   1   2  15 27.9048 2.12322
   2   2  15 5.51553 1.20500
   1   3  15 2.29651 0.86796
   2   3  15 12.7638 4.38128
   0   0   0    0.00    0.00   0
;
_shelx_hkl_checksum   11262

