#------------------------------------------------------------------------------
#$Date: 2018-11-15 00:52:23 +0200 (Thu, 15 Nov 2018) $
#$Revision: 211945 $
#$URL: file:///home/coder/svn-repositories/cod/cif/1/55/02/1550236.cif $
#------------------------------------------------------------------------------
#
# This file is available in the Crystallography Open Database (COD),
# http://www.crystallography.net/
#
# All data on this site have been placed in the public domain by the
# contributors.
#
data_1550236
loop_
_publ_author_name
'abdellah, ibrahim'
'Poater, Albert'
'Lohier, Jean-Fran\,cois'
'Gaumont, Annie-Claude'
_publ_section_title
;
 Au(I)-Catalyzed Hydroarylation of Alkenes with N,N-dialkylanilines: a
 dual gold catalysis affair
;
_journal_name_full               'Catalysis Science &amp; Technology'
_journal_paper_doi               10.1039/C8CY01309H
_journal_year                    2018
_chemical_formula_moiety         'C22 H23 N'
_chemical_formula_sum            'C22 H23 N'
_chemical_formula_weight         301.41
_chemical_name_systematic        4-(1,1-diphenylethyl)-N,N-dimethylaniline
_space_group_crystal_system      triclinic
_space_group_IT_number           2
_space_group_name_Hall           '-P 1'
_space_group_name_H-M_alt        'P -1'
_symmetry_space_group_name_Hall  '-P 1'
_symmetry_space_group_name_H-M   'P -1'
_atom_sites_solution_hydrogens   geom
_audit_creation_method           SHELXL-2014/7
_audit_update_record
;
2018-04-05 deposited with the CCDC.
2018-11-14 downloaded from the CCDC.
;
_cell_angle_alpha                64.086(6)
_cell_angle_beta                 78.354(7)
_cell_angle_gamma                63.503(6)
_cell_formula_units_Z            2
_cell_length_a                   9.7438(15)
_cell_length_b                   9.9224(16)
_cell_length_c                   10.9840(19)
_cell_measurement_reflns_used    3554
_cell_measurement_temperature    150(2)
_cell_measurement_theta_max      30.47
_cell_measurement_theta_min      2.64
_cell_volume                     854.8(2)
_computing_cell_refinement       'Bruker SAINT'
_computing_data_collection       'Bruker APEX2'
_computing_data_reduction        'Bruker SAINT'
_computing_molecular_graphics    'Bruker SHELXTL'
_computing_publication_material  'Bruker SHELXTL'
_computing_structure_refinement  'SHELXL-2014 (Sheldrick 2014)'
_computing_structure_solution    'SHELXS-97 (Sheldrick 2008)'
_diffrn_ambient_temperature      150(2)
_diffrn_measured_fraction_theta_full 0.954
_diffrn_measured_fraction_theta_max 0.913
_diffrn_measurement_device_type  'Bruker APEX-II CCD'
_diffrn_measurement_method       '\f and \w scans'
_diffrn_radiation_type           MoK\a
_diffrn_radiation_wavelength     0.71073
_diffrn_reflns_av_R_equivalents  0.0404
_diffrn_reflns_av_unetI/netI     0.0620
_diffrn_reflns_Laue_measured_fraction_full 0.954
_diffrn_reflns_Laue_measured_fraction_max 0.913
_diffrn_reflns_limit_h_max       12
_diffrn_reflns_limit_h_min       -13
_diffrn_reflns_limit_k_max       7
_diffrn_reflns_limit_k_min       -13
_diffrn_reflns_limit_l_max       13
_diffrn_reflns_limit_l_min       -15
_diffrn_reflns_number            11817
_diffrn_reflns_point_group_measured_fraction_full 0.954
_diffrn_reflns_point_group_measured_fraction_max 0.913
_diffrn_reflns_theta_full        25.242
_diffrn_reflns_theta_max         30.604
_diffrn_reflns_theta_min         2.637
_exptl_absorpt_coefficient_mu    0.067
_exptl_absorpt_correction_type   none
_exptl_crystal_colour            colourless
_exptl_crystal_density_diffrn    1.171
_exptl_crystal_description       plate
_exptl_crystal_F_000             324
_exptl_crystal_size_max          0.36
_exptl_crystal_size_mid          0.25
_exptl_crystal_size_min          0.19
_refine_diff_density_max         0.410
_refine_diff_density_min         -0.352
_refine_diff_density_rms         0.078
_refine_ls_extinction_method     none
_refine_ls_goodness_of_fit_ref   1.125
_refine_ls_hydrogen_treatment    constr
_refine_ls_matrix_type           full
_refine_ls_number_parameters     211
_refine_ls_number_reflns         4797
_refine_ls_number_restraints     0
_refine_ls_restrained_S_all      1.125
_refine_ls_R_factor_all          0.1115
_refine_ls_R_factor_gt           0.0778
_refine_ls_shift/su_max          0.000
_refine_ls_shift/su_mean         0.000
_refine_ls_structure_factor_coef Fsqd
_refine_ls_weighting_details
'w=1/[\s^2^(Fo^2^)+(0.1124P)^2^+1.2628P] where P=(Fo^2^+2Fc^2^)/3'
_refine_ls_weighting_scheme      calc
_refine_ls_wR_factor_gt          0.2647
_refine_ls_wR_factor_ref         0.2795
_reflns_Friedel_coverage         0.000
_reflns_number_gt                3253
_reflns_number_total             4797
_reflns_threshold_expression     'I > 2\s(I)'
_cod_data_source_file            c8cy01309h2.cif
_cod_data_source_block           abdellah18_0m
_cod_database_code               1550236
_shelx_shelxl_version_number     2014/7
_shelx_space_group_comment
;
The symmetry employed for this shelxl refinement is uniquely defined
by the following loop, which should always be used as a source of
symmetry information in preference to the above space-group names.
They are only intended as comments.
;
_shelx_res_file
;

    abdellah18_0m.res created by SHELXL-2014/7

TITL abdellah18_0m in P-1
CELL 0.71073   9.74380   9.92240  10.98400  64.0859  78.3544  63.5035
ZERR    2.00   0.00150   0.00160   0.00190   0.0055   0.0065   0.0062
LATT 1
SFAC C  H  N
UNIT 44  46  2
OMIT 1 0 0
OMIT 0 1 0
OMIT 0 0 1
L.S. 8
ACTA
BOND $H
FMAP 2
PLAN 2
TEMP -123.000
WGHT    0.112400    1.262800
FVAR       0.31576
MOLE 1
C1    1    0.417913    0.322341    0.355894    11.00000    0.02300    0.01685 =
         0.01740   -0.00456   -0.00173   -0.00899
C3    1    0.363054    0.296174    0.502613    11.00000    0.02404    0.01573 =
         0.01938   -0.00489   -0.00189   -0.01059
C6    1    0.250934    0.261435    0.770937    11.00000    0.02547    0.01730 =
         0.01967   -0.00578   -0.00069   -0.01066
C9    1    0.592626    0.261118    0.346780    11.00000    0.02371    0.01796 =
         0.01553   -0.00491    0.00014   -0.00877
C4    1    0.208393    0.333252    0.536753    11.00000    0.02242    0.02343 =
         0.02015   -0.00649   -0.00509   -0.00947
AFIX  43
H4    2    0.138639    0.371232    0.468106    11.00000   -1.20000
AFIX   0
C8    1    0.460141    0.237692    0.607471    11.00000    0.02062    0.02041 =
         0.02285   -0.00789   -0.00163   -0.00910
AFIX  43
H8    2    0.566815    0.208547    0.589229    11.00000   -1.20000
AFIX   0
C7    1    0.406303    0.220358    0.738468    11.00000    0.02383    0.02356 =
         0.01994   -0.00648   -0.00510   -0.00940
AFIX  43
H7    2    0.476890    0.179672    0.807266    11.00000   -1.20000
AFIX   0
C15   1    0.348400    0.505668    0.261777    11.00000    0.01764    0.01903 =
         0.02198   -0.00308   -0.00054   -0.00820
C5    1    0.152498    0.317232    0.665413    11.00000    0.02053    0.02226 =
         0.02351   -0.00722   -0.00085   -0.00986
AFIX  43
H5    2    0.046044    0.344154    0.683410    11.00000   -1.20000
AFIX   0
C2    1    0.363569    0.227258    0.309956    11.00000    0.03243    0.02694 =
         0.02162   -0.00976   -0.00489   -0.01396
AFIX 137
H2A   2    0.415287    0.221531    0.224921    11.00000   -1.50000
H2B   2    0.252414    0.284017    0.296226    11.00000   -1.50000
H2C   2    0.388591    0.116012    0.379631    11.00000   -1.50000
AFIX   0
C14   1    0.687266    0.104750    0.350518    11.00000    0.02993    0.01790 =
         0.02447   -0.00628    0.00084   -0.01093
AFIX  43
H14   2    0.642848    0.034288    0.355992    11.00000   -1.20000
AFIX   0
C20   1    0.282052    0.629899    0.309319    11.00000    0.02368    0.02105 =
         0.03151   -0.00882   -0.00052   -0.00997
AFIX  43
H20   2    0.272672    0.602906    0.404043    11.00000   -1.20000
AFIX   0
C10   1    0.663441    0.360305    0.338000    11.00000    0.02695    0.02106 =
         0.03719   -0.01340    0.00073   -0.00990
AFIX  43
H10   2    0.601616    0.468058    0.333943    11.00000   -1.20000
AFIX   0
C12   1    0.913090    0.150683    0.338375    11.00000    0.02273    0.03103 =
         0.03693   -0.01301    0.00237   -0.00998
AFIX  43
H12   2    1.021576    0.113146    0.335208    11.00000   -1.20000
AFIX   0
C11   1    0.821495    0.305524    0.335060    11.00000    0.02802    0.02890 =
         0.03924   -0.01437    0.00242   -0.01530
AFIX  43
H11   2    0.866835    0.374711    0.330755    11.00000   -1.20000
AFIX   0
C18   1    0.243200    0.835988    0.081847    11.00000    0.02658    0.02261 =
         0.04582    0.00364   -0.00516   -0.00905
AFIX  43
H18   2    0.208043    0.947962    0.020956    11.00000   -1.20000
AFIX   0
C16   1    0.360382    0.550808    0.122024    11.00000    0.02734    0.02796 =
         0.02352   -0.00480    0.00145   -0.00911
AFIX  43
H16   2    0.404720    0.467977    0.087004    11.00000   -1.20000
AFIX   0
C13   1    0.845862    0.050716    0.346330    11.00000    0.02797    0.02237 =
         0.03925   -0.01279    0.00124   -0.00585
AFIX  43
H13   2    0.908647   -0.056255    0.348977    11.00000   -1.20000
AFIX   0
C17   1    0.309024    0.713661    0.033488    11.00000    0.02961    0.03373 =
         0.02762    0.00199    0.00136   -0.01109
AFIX  43
H17   2    0.319163    0.741472   -0.061346    11.00000   -1.20000
AFIX   0
C19   1    0.229029    0.793991    0.219310    11.00000    0.02438    0.02111 =
         0.04945   -0.01019   -0.00251   -0.00822
AFIX  43
H19   2    0.182589    0.877710    0.253360    11.00000   -1.20000
AFIX   0
C21   1    0.033504    0.327621    0.921313    11.00000    0.03066    0.06410 =
         0.03378   -0.02582    0.00872   -0.02064
AFIX 137
H21A  2    0.000872    0.446707    0.875322    11.00000   -1.50000
H21B  2    0.011205    0.298043    1.018402    11.00000   -1.50000
H21C  2   -0.022006    0.292699    0.884071    11.00000   -1.50000
AFIX   0
C22   1    0.292986    0.233755    0.993659    11.00000    0.04097    0.06479 =
         0.02612   -0.02134   -0.00151   -0.02339
AFIX 137
H22A  2    0.389832    0.137138    1.005228    11.00000   -1.50000
H22B  2    0.240783    0.222639    1.081481    11.00000   -1.50000
H22C  2    0.313907    0.332310    0.956899    11.00000   -1.50000
AFIX   0
N1    3    0.195922    0.247343    0.900937    11.00000    0.03018    0.03392 =
         0.02148   -0.01187    0.00193   -0.01558
HKLF 4

REM  abdellah18_0m in P-1
REM R1 =  0.0778 for    3253 Fo > 4sig(Fo)  and  0.1115 for all    4797 data
REM    211 parameters refined using      0 restraints

END

WGHT      0.1126      1.2640

REM Highest difference peak  0.410,  deepest hole -0.352,  1-sigma level  0.078
Q1    1   0.3824  0.4174  0.3156  11.00000  0.05    0.41
Q2    1   0.1776  0.7989  0.1539  11.00000  0.05    0.34
;
_shelx_res_checksum              69705
_shelx_hkl_file
;
  -1   0   0   -0.54    0.04
  -1   0   0   -0.58    0.03
  -1   0   0   -0.64    0.02
  -1   0   0   -0.59    0.04
   1   0   0   -0.57    0.04
   1   0   0   -0.55    0.03
   1   0   0   -0.60    0.03
  -2   0   0  415.46   13.15
  -2   0   0  397.40   13.17
  -2   0   0  382.20   13.36
  -2   0   0  408.70   13.17
   2   0   0  392.84   13.17
   2   0   0  386.85   13.22
   2   0   0  420.30   13.17
   2   0   0  367.51   13.20
  -3   0   0   65.35    2.20
  -3   0   0   63.44    2.23
  -3   0   0   61.75    2.19
  -3   0   0   60.87    2.18
   3   0   0   61.30    2.20
   3   0   0   59.96    2.16
  -4   0   0   19.66    0.84
  -4   0   0   20.97    0.86
  -4   0   0   19.42    0.84
   4   0   0   20.64    0.83
   4   0   0   19.60    0.86
  -5   0   0   35.61    1.37
  -5   0   0   33.63    1.34
   5   0   0   33.15    1.31
   5   0   0   32.93    1.35
  -6   0   0    1.44    0.30
  -6   0   0    1.12    0.26
   6   0   0    0.81    0.23
   6   0   0    0.87    0.24
  -7   0   0    1.14    0.32
  -7   0   0    0.65    0.26
   7   0   0    0.82    0.28
   7   0   0    1.19    0.29
  -8   0   0   -0.13    0.26
  -8   0   0    0.22    0.32
   8   0   0   -0.30    0.24
   8   0   0    0.60    0.29
  -9   0   0   -0.04    0.29
  -9   0   0    0.11    0.32
   9   0   0   -0.33    0.28
 -10   0   0    0.54    0.43
 -10   0   0    0.13    1.99
 -10   0   0    1.14    0.49
 -11   0   0   -0.52    0.41
 -11   0   0   -0.50    2.56
 -11   0   0    0.33    0.53
 -12   0   0    1.59    0.67
 -12   0   0    0.69    2.70
 -11   1   0   -1.85    2.35
 -11   1   0   -0.30    0.52
 -10   1   0    0.10    0.36
 -10   1   0    0.03    0.44
   9  -1   0    2.25    0.50
   9  -1   0    3.52    0.63
  -9   1   0    2.86    0.58
  -9   1   0    3.55    0.55
   8  -1   0    0.41    0.33
   8  -1   0    0.66    0.34
  -8   1   0    0.44    0.31
  -8   1   0    0.84    0.35
   7  -1   0    2.00    0.37
   7  -1   0    2.70    0.48
  -7   1   0    2.14    0.37
  -7   1   0    2.30    0.39
   6  -1   0   -0.05    0.18
   6  -1   0    0.49    0.25
  -6   1   0    0.16    0.21
  -6   1   0    0.35    0.22
   5  -1   0   -0.03    0.15
   5  -1   0    0.09    0.20
  -5   1   0    0.22    0.19
  -5   1   0    0.03    0.16
   4  -1   0   18.81    0.82
   4  -1   0   19.94    0.87
  -4   1   0   18.76    0.83
  -4   1   0   18.92    0.85
   3  -1   0    0.33    0.15
   2  -1   0    3.37    0.25
   2  -1   0    3.30    0.28
   2  -1   0    3.83    0.25
   2  -1   0    3.22    0.23
   2  -1   0    3.64    0.27
  -2   1   0    3.48    0.27
  -2   1   0    3.64    0.26
  -2   1   0    3.68    0.24
   1  -1   0   54.69    1.92
   1  -1   0   58.01    1.92
   1  -1   0   54.17    1.91
   1  -1   0   56.24    1.91
   1  -1   0   55.63    1.91
  -1   1   0   57.51    1.92
  -1   1   0   53.58    1.90
  -1   1   0   55.38    1.91
  -1   1   0   56.32    1.92
   0  -1   0    9.19    0.38
  -1  -1   0    2.22    0.30
  -1  -1   0    3.17    0.13
  -2  -1   0   77.68    2.62
  -2  -1   0   78.40    2.63
  -2  -1   0   73.25    2.85
  -2  -1   0   79.99    2.60
   2   1   0   79.80    2.63
   2   1   0   76.03    2.61
  -3  -1   0  211.05    7.23
  -3  -1   0  218.44    7.24
  -3  -1   0  221.13    7.20
  -3  -1   0  213.13    7.23
   3   1   0  212.50    7.20
   3   1   0  219.61    7.23
  -4  -1   0  122.69    4.17
  -4  -1   0  123.19    4.18
  -4  -1   0  123.48    4.18
   4   1   0  118.62    4.13
   4   1   0  120.53    4.17
  -5  -1   0   16.94    0.78
  -5  -1   0   17.25    0.76
   5   1   0   16.76    0.72
   5   1   0   16.71    0.77
  -6  -1   0   35.95    1.46
  -6  -1   0   37.45    1.48
   6   1   0   34.18    1.39
   6   1   0   38.59    1.48
  -9  -1   0    4.33    0.62
  -9  -1   0    4.04    0.56
  -9  -1   0    5.05    1.39
   9   1   0    3.90    0.55
 -10  -1   0    2.77    0.60
 -10  -1   0    3.17    0.57
 -10  -1   0    3.60    1.75
 -11  -1   0    2.01    2.59
 -11  -1   0    5.27    0.77
 -11  -1   0    4.01    0.72
 -12  -1   0   -4.39    2.84
 -12  -1   0   -0.31    0.59
 -12  -1   0   -0.04    0.53
 -10   2   0    6.69    0.87
   9  -2   0   -0.02    0.40
   9  -2   0   -0.45    0.35
  -9   2   0   -0.21    0.35
  -9   2   0    0.00    0.32
   8  -2   0    1.09    0.41
   8  -2   0    0.23    0.30
  -8   2   0    0.62    0.33
  -8   2   0    1.33    0.40
   7  -2   0    0.22    0.29
   7  -2   0    0.01    0.29
  -7   2   0    0.05    0.23
  -7   2   0   -0.05    0.26
   6  -2   0    2.90    0.39
   6  -2   0    3.85    0.54
  -6   2   0    3.20    0.41
  -6   2   0    4.33    0.51
   5  -2   0   37.65    1.55
   5  -2   0   37.24    1.49
  -5   2   0   38.26    1.52
  -5   2   0   34.43    1.48
   4  -2   0    0.67    0.22
   4  -2   0    0.75    0.22
  -4   2   0    0.92    0.20
  -4   2   0    0.92    0.22
   3  -2   0    2.17    0.26
   3  -2   0    2.17    0.28
   3  -2   0    2.47    0.29
  -3   2   0    3.69    0.32
  -3   2   0    2.27    0.26
   2  -2   0    6.68    0.37
   2  -2   0    6.92    0.41
   2  -2   0    7.86    0.40
   2  -2   0    7.18    0.41
   2  -2   0    6.76    0.39
  -2   2   0    6.53    0.37
  -2   2   0    6.91    0.39
   1  -2   0    0.71    0.14
   1  -2   0    1.09    0.16
   1  -2   0    1.08    0.17
   1  -2   0    1.05    0.14
   1  -2   0    1.50    0.18
  -1   2   0    0.83    0.13
  -1   2   0    1.09    0.13
   0  -2   0  982.92   32.81
   0  -2   0 1000.00   32.81
   0  -2   0  972.96   32.72
   0   2   0  956.88   32.72
   0   2   0  992.71   32.72
   0   2   0  997.91   32.71
  -1  -2   0  137.23    4.60
  -1  -2   0  139.97    4.60
  -2  -2   0  335.41   11.66
  -2  -2   0  354.32   11.67
  -2  -2   0  364.30   11.69
   2   2   0  354.05   11.70
   2   2   0  349.49   11.63
  -3  -2   0   13.91    0.65
  -3  -2   0   18.76    0.68
   3   2   0   18.63    0.65
  -4  -2   0   71.46    2.44
  -4  -2   0   68.57    2.43
  -4  -2   0   68.52    3.08
  -4  -2   0   71.49    2.39
   4   2   0   68.29    2.42
  -5  -2   0    9.19    0.50
  -5  -2   0    9.14    0.49
  -5  -2   0    8.99    0.48
   5   2   0    9.40    0.48
  -6  -2   0   41.21    1.59
  -6  -2   0   40.97    1.61
  -6  -2   0   42.99    1.61
  -6  -2   0   40.64    2.58
   6   2   0   41.17    1.59
  -7  -2   0    3.50    0.41
  -7  -2   0    4.70    0.49
   7   2   0    3.52    0.40
  -8  -2   0    0.88    0.33
  -8  -2   0    1.38    0.89
  -8  -2   0    1.15    0.33
   8   2   0    0.89    0.26
 -11  -2   0    0.11    0.46
 -11  -2   0    0.24    0.42
 -11  -2   0   -1.02    2.36
 -12  -2   0   -2.96    2.91
 -12  -2   0    1.56    0.68
 -12  -2   0    2.98    0.68
 -13  -2   0   -2.92    3.56
 -13  -2   0   -0.51    0.54
 -13  -2   0    1.27    0.68
   9  -3   0    9.95    1.05
   9  -3   0    8.63    0.93
   8  -3   0    1.10    0.42
   8  -3   0    1.47    0.46
  -8   3   0    0.69    0.36
   7  -3   0    3.91    0.54
   7  -3   0    3.05    0.49
  -7   3   0    3.66    0.52
  -7   3   0    4.18    0.53
   6  -3   0    9.79    0.69
   6  -3   0    8.36    0.73
  -6   3   0    8.34    0.60
  -6   3   0    9.54    0.67
   5  -3   0    7.38    0.63
   5  -3   0    7.47    0.56
  -5   3   0    7.75    0.55
  -5   3   0    7.15    0.50
   4  -3   0    1.58    0.33
   4  -3   0    1.13    0.26
  -4   3   0    1.00    0.25
  -4   3   0    0.90    0.22
   3  -3   0    4.14    0.42
   3  -3   0    4.04    0.38
   3  -3   0    4.33    0.30
   3  -3   0    2.92    0.34
  -3   3   0    3.48    0.30
  -3   3   0    3.60    0.34
   2  -3   0    5.60    0.39
   2  -3   0    6.14    0.41
   2  -3   0    6.82    0.38
   2  -3   0    5.58    0.40
   2  -3   0    6.28    0.37
  -2   3   0    5.38    0.34
  -2   3   0    6.67    0.39
   1  -3   0   84.81    2.97
   1  -3   0   84.00    2.98
   1  -3   0   88.59    2.99
   1  -3   0   84.08    2.99
  -1   3   0   87.83    2.97
  -1   3   0   86.55    2.95
   0  -3   0   34.82    1.25
   0  -3   0   35.52    1.24
   0  -3   0   34.47    1.25
   0  -3   0   32.89    1.24
   0   3   0   34.79    1.22
   0   3   0   35.03    1.23
  -1  -3   0  440.65   14.43
  -1  -3   0  445.78   14.32
  -1  -3   0  415.66   14.35
  -1  -3   0  425.88   14.30
   1   3   0  428.44   14.25
  -2  -3   0   69.46    2.30
  -2  -3   0   67.14    2.29
  -3  -3   0   10.47    0.43
  -3  -3   0    9.98    0.43
  -3  -3   0    9.85    0.42
   3   3   0   10.80    0.37
  -4  -3   0    0.29    0.43
  -4  -3   0    0.07    0.10
  -4  -3   0    0.10    0.10
  -4  -3   0    0.08    0.11
  -4  -3   0    0.15    0.07
   4   3   0    0.38    0.09
  -5  -3   0    2.82    0.29
   5   3   0    2.84    0.23
  -6  -3   0   20.23    0.87
  -6  -3   0   19.97    0.87
  -6  -3   0   18.01    1.93
  -6  -3   0   21.05    0.90
   6   3   0   20.19    0.84
  -7  -3   0   28.40    1.18
  -7  -3   0   26.65    1.18
  -7  -3   0   25.00    2.37
   7   3   0   28.38    1.13
  -8  -3   0    9.71    0.70
  -8  -3   0   15.03    2.29
  -8  -3   0   11.06    0.70
   8   3   0   11.25    0.63
  -9  -3   0    0.48    0.91
  -9  -3   0    0.11    0.30
  -9  -3   0    0.00    0.26
 -10  -3   0    2.50    0.49
 -10  -3   0    2.55    0.52
 -10  -3   0    2.09    1.35
 -11  -3   0    1.25    0.54
 -11  -3   0    0.17    1.82
 -11  -3   0    1.78    0.52
 -12  -3   0    0.76    0.56
 -12  -3   0    0.49    0.54
 -12  -3   0   -0.58    2.67
 -13  -3   0    4.93    0.84
 -13  -3   0    2.87    3.10
 -13  -3   0    2.32    0.70
   9  -4   0    1.71    0.62
   9  -4   0    2.41    0.70
   8  -4   0    0.53    0.49
   8  -4   0    0.37    0.51
   7  -4   0    7.59    0.87
   7  -4   0    8.37    0.82
   6  -4   0    5.81    0.63
   6  -4   0    7.08    0.71
  -6   4   0    6.82    0.59
   5  -4   0   26.25    1.27
   5  -4   0   25.72    1.21
  -5   4   0   25.36    1.18
  -5   4   0   23.27    1.12
   4  -4   0    2.68    0.39
   4  -4   0    3.59    0.49
  -4   4   0    3.55    0.42
  -4   4   0    3.26    0.33
   3  -4   0    0.31    0.23
   3  -4   0    0.23    0.07
   3  -4   0   -0.10    0.20
   3  -4   0    0.06    0.21
  -3   4   0   -0.01    0.12
  -3   4   0   -0.07    0.13
   2  -4   0    0.64    0.16
   2  -4   0    0.50    0.22
   2  -4   0    0.93    0.17
   2  -4   0    0.77    0.22
   2  -4   0    1.03    0.24
  -2   4   0    0.83    0.18
  -2   4   0    0.59    0.15
   1  -4   0   13.21    0.64
   1  -4   0   13.92    0.66
   1  -4   0   13.79    0.62
   1  -4   0   13.68    0.63
  -1   4   0   14.30    0.62
  -1   4   0   13.09    0.58
   0  -4   0   51.15    1.80
   0  -4   0   52.35    1.81
   0  -4   0   49.49    1.79
   0  -4   0   47.71    1.80
   0  -4   0   50.21    1.80
   0   4   0   51.72    1.78
   0   4   0   50.12    1.76
  -1  -4   0  116.90    3.94
  -1  -4   0  113.40    3.95
  -1  -4   0  114.02    3.95
  -1  -4   0  114.38    3.96
   1   4   0  116.79    3.93
   1   4   0  125.20    3.97
  -2  -4   0    8.57    0.36
  -2  -4   0    8.02    0.36
  -2  -4   0    8.08    0.34
  -2  -4   0    8.13    0.36
  -3  -4   0    2.82    0.19
  -3  -4   0    1.95    0.18
  -4  -4   0    5.70    0.30
  -4  -4   0    5.87    0.31
  -4  -4   0    4.02    0.27
  -5  -4   0    4.72    0.33
  -5  -4   0    4.62    0.22
  -5  -4   0    4.50    0.31
  -5  -4   0    5.10    0.33
  -6  -4   0   23.96    1.00
  -6  -4   0   23.58    0.99
  -6  -4   0   25.90    1.00
  -6  -4   0   21.83    2.07
   6   4   0   24.61    0.94
  -7  -4   0    3.51    0.81
  -8  -4   0   13.47    0.76
  -8  -4   0   13.44    1.84
  -8  -4   0   14.64    0.80
  -9  -4   0   10.01    1.79
  -9  -4   0    9.74    0.73
  -9  -4   0   11.08    0.73
 -10  -4   0    3.13    0.51
 -10  -4   0    1.80    0.75
 -10  -4   0    3.42    0.53
 -11  -4   0    2.81    0.56
 -11  -4   0    2.88    0.55
 -11  -4   0    1.72    1.32
 -12  -4   0    3.08    2.23
 -12  -4   0    0.60    0.53
 -12  -4   0    0.80    0.52
 -13  -4   0    0.84    0.60
   9  -5   0    0.23    0.54
   8  -5   0    0.35    0.48
   8  -5   0    1.11    0.60
   7  -5   0    0.36    0.42
   7  -5   0    0.69    0.47
   6  -5   0   12.33    1.01
   6  -5   0   14.24    0.96
   5  -5   0    3.22    0.52
   5  -5   0    3.88    0.54
   4  -5   0   17.05    0.93
   4  -5   0   16.87    0.99
   3  -5   0   12.87    0.77
   3  -5   0   12.25    0.73
   3  -5   0   12.89    0.79
  -3   5   0   13.01    0.65
  -3   5   0   12.46    0.67
   2  -5   0   -0.10    0.22
   2  -5   0   -0.08    0.20
   2  -5   0    0.11    0.07
   2  -5   0   -0.23    0.18
  -2   5   0    0.18    0.11
  -2   5   0    0.14    0.13
   1  -5   0    5.94    0.42
   1  -5   0    4.81    0.41
   1  -5   0    4.37    0.32
   1  -5   0    4.98    0.41
  -1   5   0    5.28    0.34
  -1   5   0    5.91    0.33
   0  -5   0   25.24    1.02
   0  -5   0   25.55    1.04
   0  -5   0   25.89    1.01
   0  -5   0   26.15    1.01
   0  -5   0   23.86    1.02
   0   5   0   26.10    0.98
   0   5   0   25.23    0.95
  -1  -5   0   17.90    0.75
  -1  -5   0   17.55    0.72
  -1  -5   0   18.75    0.73
  -1  -5   0   17.23    0.73
  -1  -5   0   17.98    0.74
  -2  -5   0    2.48    0.20
  -2  -5   0    2.76    0.23
  -2  -5   0    2.90    0.21
  -2  -5   0    2.75    0.25
  -3  -5   0    5.40    0.29
  -3  -5   0    4.92    0.28
  -4  -5   0    1.05    0.16
  -4  -5   0    1.16    0.16
  -4  -5   0    1.37    0.17
  -5  -5   0   26.01    1.02
  -5  -5   0   26.36    1.01
  -5  -5   0   27.30    1.03
  -6  -5   0    5.07    0.38
  -6  -5   0    5.08    0.36
  -6  -5   0    4.87    0.36
  -6  -5   0    5.59    0.23
  -7  -5   0    1.17    0.24
  -7  -5   0    1.15    0.23
  -8  -5   0   24.82    1.07
  -8  -5   0   23.16    1.06
  -8  -5   0   21.92    3.21
  -9  -5   0    1.77    0.85
  -9  -5   0    2.22    0.36
  -9  -5   0    1.64    0.35
 -10  -5   0    6.68    0.66
 -10  -5   0    4.75    1.35
 -10  -5   0    6.54    0.64
 -11  -5   0    0.02    0.39
 -11  -5   0   -0.37    1.08
 -11  -5   0    0.11    0.39
 -12  -5   0    6.84    2.30
 -12  -5   0    3.53    0.66
 -12  -5   0    2.88    0.59
   8  -6   0   -0.08    0.68
   8  -6   0    0.35    0.65
   7  -6   0    0.13    0.59
   7  -6   0    0.61    0.56
   6  -6   0    0.55    0.47
   6  -6   0    0.58    0.49
   5  -6   0    0.04    0.39
   5  -6   0    0.39    0.41
   4  -6   0    0.12    0.34
   4  -6   0    0.07    0.34
   3  -6   0    2.62    0.45
   3  -6   0    2.88    0.45
   3  -6   0    2.68    0.46
   2  -6   0    3.57    0.45
   2  -6   0    3.74    0.45
   2  -6   0    3.70    0.46
   1  -6   0    4.86    0.45
   1  -6   0    5.15    0.46
   1  -6   0    4.97    0.45
  -1   6   0    5.41    0.31
  -1   6   0    5.08    0.32
   0  -6   0    0.24    0.19
   0  -6   0    0.20    0.19
   0  -6   0    0.14    0.10
   0  -6   0    0.23    0.10
   0  -6   0    0.25    0.19
  -1  -6   0   12.58    0.63
  -1  -6   0   12.85    0.59
  -1  -6   0   12.84    0.61
  -1  -6   0   13.66    0.64
  -1  -6   0   12.97    0.59
  -2  -6   0    7.87    0.40
  -2  -6   0    7.61    0.40
  -2  -6   0    7.91    0.43
  -2  -6   0    7.78    0.43
  -2  -6   0    7.85    0.39
  -3  -6   0    9.49    0.43
  -3  -6   0   10.01    0.47
  -3  -6   0    9.79    0.44
  -3  -6   0   10.06    0.45
  -3  -6   0    9.58    0.47
  -4  -6   0    3.17    0.27
  -5  -6   0    1.90    0.21
  -5  -6   0    1.81    0.23
  -5  -6   0    1.48    0.21
  -6  -6   0    0.29    0.18
  -6  -6   0    0.32    0.17
  -6  -6   0    0.50    0.18
  -7  -6   0    8.88    0.53
  -7  -6   0    8.60    0.53
  -8  -6   0    0.91    0.26
  -8  -6   0    0.37    0.23
  -9  -6   0   14.69    0.82
  -9  -6   0   14.37    0.81
 -10  -6   0    0.84    0.34
 -10  -6   0    0.07    0.31
   7  -7   0    0.21    0.68
   7  -7   0   -0.28    0.52
   6  -7   0    1.43    0.62
   6  -7   0    1.77    0.61
   5  -7   0    0.54    0.52
   5  -7   0    0.46    0.49
   4  -7   0    0.09    0.39
   4  -7   0    0.55    0.41
   3  -7   0    1.20    0.41
   3  -7   0    1.87    0.48
   2  -7   0    0.09    0.32
   2  -7   0    0.39    0.30
   2  -7   0    0.16    0.32
   1  -7   0    0.48    0.27
   1  -7   0    0.05    0.24
   1  -7   0   -0.24    0.23
   0  -7   0    4.56    0.45
   0  -7   0    4.28    0.43
   0  -7   0    4.45    0.47
  -1  -7   0   10.29    0.59
  -1  -7   0    9.66    0.52
  -1  -7   0   10.66    0.60
  -1  -7   0   10.05    0.55
  -2  -7   0    4.54    0.32
  -2  -7   0    4.25    0.34
  -2  -7   0    4.93    0.39
  -2  -7   0    4.62    0.38
  -2  -7   0    4.92    0.33
  -3  -7   0    6.71    0.43
  -3  -7   0    6.83    0.38
  -3  -7   0    7.28    0.44
  -3  -7   0    7.20    0.38
  -3  -7   0    7.31    0.40
  -4  -7   0    2.73    0.28
  -4  -7   0    2.93    0.29
  -4  -7   0    3.04    0.20
  -5  -7   0   -0.13    0.16
  -5  -7   0   -0.05    0.11
  -6  -7   0   -0.35    0.11
  -6  -7   0    0.01    0.17
  -6  -7   0    0.00    0.16
  -7  -7   0    0.76    0.23
  -7  -7   0    0.52    0.22
  -8  -7   0    5.76    0.47
  -8  -7   0    5.71    0.49
  -9  -7   0    1.50    0.33
  -9  -7   0    1.59    0.35
 -10  -7   0    3.97    0.51
 -10  -7   0    3.59    0.48
 -11  -7   0    0.04    0.35
 -11  -7   0    0.21    0.35
 -12  -7   0    3.40    0.57
 -12  -7   0    2.43    0.58
 -13  -7   0    0.82    0.59
 -13  -7   0    1.69    0.55
   6  -8   0    0.93    0.74
   6  -8   0   -0.28    0.61
   5  -8   0    6.85    0.94
   5  -8   0    6.50    0.92
   4  -8   0    6.19    0.79
   4  -8   0    6.08    0.81
   3  -8   0    0.51    0.45
   3  -8   0    0.71    0.44
   2  -8   0    1.93    0.48
   2  -8   0    1.78    0.47
   2  -8   0    1.75    0.46
   1  -8   0    8.83    0.71
   1  -8   0    9.58    0.74
   1  -8   0    8.39    0.71
   0  -8   0    0.22    0.28
   0  -8   0    0.63    0.29
   0  -8   0    0.01    0.26
  -1  -8   0    0.40    0.25
  -1  -8   0    0.92    0.25
  -1  -8   0    0.42    0.26
  -2  -8   0    0.31    0.22
  -2  -8   0    0.16    0.18
  -2  -8   0    0.36    0.24
  -3  -8   0   25.68    1.03
  -3  -8   0   26.93    1.11
  -3  -8   0   27.81    1.11
  -3  -8   0   26.06    1.06
  -4  -8   0    1.42    0.27
  -4  -8   0    1.80    0.23
  -5  -8   0    1.33    0.26
  -6  -8   0    1.16    0.26
  -6  -8   0    0.93    0.24
  -7  -8   0    0.12    0.20
  -7  -8   0    0.18    0.22
  -8  -8   0    0.88    0.27
  -8  -8   0    1.56    0.32
  -9  -8   0    0.90    0.31
  -9  -8   0    1.45    0.37
 -10  -8   0    0.46    0.35
 -10  -8   0    0.60    0.32
 -11  -8   0    3.85    0.55
 -11  -8   0    2.81    0.51
 -12  -8   0    0.54    0.45
 -12  -8   0    0.82    0.48
 -13  -8   0    0.17    0.55
 -13  -8   0   -0.19    0.50
   4  -9   0    1.52    0.64
   4  -9   0    2.17    0.75
   3  -9   0    6.57    0.89
   3  -9   0    6.60    0.84
   2  -9   0    6.14    0.75
   2  -9   0    4.80    0.70
   1  -9   0    2.23    0.52
   1  -9   0    2.99    0.53
   1  -9   0    2.13    0.50
   0  -9   0    1.24    0.37
   0  -9   0    1.22    0.40
   0  -9   0    0.97    0.39
  -1  -9   0    0.55    0.29
  -1  -9   0    0.93    0.33
  -1  -9   0    0.71    0.33
  -2  -9   0    0.66    0.30
  -2  -9   0    0.67    0.24
  -2  -9   0    0.28    0.27
  -3  -9   0   10.20    0.62
  -3  -9   0    8.74    0.62
  -4  -9   0    2.11    0.33
  -5  -9   0   -0.15    0.23
  -6  -9   0    0.32    0.24
  -7  -9   0    2.11    0.35
  -8  -9   0    0.13    0.26
  -9  -9   0    1.05    0.32
  -9  -9   0    1.09    0.36
 -10  -9   0    1.64    0.44
 -10  -9   0    2.10    0.43
 -11  -9   0    3.62    0.54
 -11  -9   0    4.18    0.60
 -12  -9   0    1.98    0.57
 -12  -9   0    1.95    0.52
   3 -10   0    4.62    0.90
   3 -10   0    4.45    0.86
   2 -10   0    3.88    0.73
   2 -10   0    4.46    0.78
   1 -10   0    6.21    0.76
   1 -10   0    4.75    0.72
   1 -10   0    3.95    0.70
   0 -10   0    0.71    0.41
   0 -10   0    0.69    0.45
   0 -10   0    0.36    0.43
  -1 -10   0   12.38    0.88
  -1 -10   0   10.76    0.85
  -2 -10   0    3.88    0.53
  -2 -10   0    4.38    0.53
  -3 -10   0   -0.09    0.30
  -3 -10   0    0.13    0.32
  -4 -10   0   -0.04    0.28
  -5 -10   0    0.25    0.28
  -6 -10   0    3.30    0.44
  -7 -10   0   -0.02    0.29
  -8 -10   0    2.84    0.45
  -9 -10   0    0.67    0.38
 -10 -10   0    0.37    0.38
 -11 -10   0    0.88    0.49
 -11 -10   0    0.58    0.42
 -12 -10   0    0.48    0.51
 -12 -10   0   -0.08    0.45
   1 -11   0    2.26    0.71
   0 -11   0    2.11    0.63
   0 -11   0    2.01    0.62
  -1 -11   0    0.79    0.51
  -1 -11   0    0.91    0.53
  -2 -11   0    0.92    0.45
  -2 -11   0    0.38    0.46
  -3 -11   0   -0.52    0.35
  -3 -11   0   -0.17    0.37
  -4 -11   0    1.75    0.45
  -5 -11   0    0.82    0.39
  -6 -11   0    1.14    0.38
  -7 -11   0    5.30    0.56
  -8 -11   0   -0.24    0.36
  -9 -11   0   -0.32    0.39
 -10 -11   0    1.36    0.47
 -11 -11   0    0.27    0.49
  -1 -12   0    2.36    0.70
  -2 -12   0    5.23    0.74
  -2 -12   0    5.79    0.78
  -3 -12   0    0.38    0.48
  -3 -12   0    0.30    0.50
  -4 -12   0    0.88    0.46
  -5 -12   0    0.36    0.42
  -6 -12   0    2.61    0.53
  -7 -12   0   -0.17    0.40
  -8 -12   0   -0.16    0.40
  -9 -12   0    0.55    0.44
  -8 -12   1   -0.57    0.46
  -7 -12   1    1.06    0.52
  -6 -12   1    2.99    0.60
  -5 -12   1    3.63    0.66
  -4 -12   1   -0.05    0.52
  -4 -12   1   -0.21    0.51
  -3 -12   1    2.65    0.67
  -3 -12   1    1.48    0.65
 -10 -11   1    7.49    0.80
  -9 -11   1    0.30    0.44
  -8 -11   1    2.62    0.51
  -7 -11   1   -0.38    0.40
  -6 -11   1    0.75    0.44
  -5 -11   1    0.02    0.40
  -4 -11   1   -0.49    0.43
  -4 -11   1    0.32    0.43
  -3 -11   1    1.13    0.53
  -3 -11   1    0.62    0.47
  -2 -11   1    1.78    0.57
  -2 -11   1    2.56    0.59
  -1 -11   1    0.55    0.52
  -1 -11   1    0.57    0.55
   0 -11   1    1.14    0.64
   0 -11   1    0.94    0.64
 -11 -10   1    0.91    0.52
 -11 -10   1    0.05    0.44
 -10 -10   1    0.44    0.45
 -10 -10   1    0.37    0.41
  -9 -10   1   -0.09    0.38
  -8 -10   1    3.64    0.53
  -7 -10   1   -0.37    0.32
  -6 -10   1   -0.03    0.34
  -5 -10   1    0.19    0.34
  -5 -10   1    0.31    0.35
  -4 -10   1    0.64    0.37
  -4 -10   1    1.31    0.39
  -3 -10   1    3.67    0.52
  -3 -10   1    3.15    0.52
  -2 -10   1    0.08    0.39
  -2 -10   1    0.16    0.38
  -1 -10   1    3.00    0.58
  -1 -10   1    3.12    0.57
   0 -10   1   -0.08    0.47
   0 -10   1    0.59    0.49
   0 -10   1   -0.34    0.51
   1 -10   1    2.29    0.63
   1 -10   1    2.06    0.67
   1 -10   1    2.36    0.63
   2 -10   1   -0.91    0.53
   2 -10   1   -0.34    0.61
   2 -10   1    1.02    0.63
 -12  -9   1    0.39    0.52
 -12  -9   1    0.96    0.53
 -11  -9   1    0.60    0.44
 -11  -9   1    0.39    0.47
 -10  -9   1    0.60    0.39
 -10  -9   1    1.31    0.46
  -9  -9   1    0.11    0.30
  -9  -9   1    0.75    0.38
  -8  -9   1    1.41    0.38
  -8  -9   1    0.50    0.30
  -7  -9   1    4.27    0.52
  -6  -9   1    1.30    0.32
  -6  -9   1    1.13    0.33
  -5  -9   1    1.18    0.34
  -5  -9   1    0.97    0.34
  -4  -9   1   19.94    0.95
  -4  -9   1   17.69    0.95
  -3  -9   1    2.51    0.44
  -3  -9   1    1.93    0.39
  -2  -9   1    9.19    0.72
  -2  -9   1   10.21    0.75
  -2  -9   1   10.96    0.66
  -1  -9   1    0.57    0.36
  -1  -9   1    0.09    0.34
  -1  -9   1    1.72    0.38
   0  -9   1    1.34    0.41
   0  -9   1    1.37    0.44
   0  -9   1    2.00    0.48
   1  -9   1    7.96    0.83
   1  -9   1    8.82    0.89
   1  -9   1    6.99    0.79
   2  -9   1    0.87    0.53
   2  -9   1    0.45    0.54
   2  -9   1    0.36    0.50
   3  -9   1   -0.43    0.52
   3  -9   1   -0.48    0.59
   4  -9   1    1.80    0.72
   4  -9   1    1.53    0.80
 -12  -8   1   -0.41    0.47
 -12  -8   1    0.67    0.49
 -11  -8   1    0.44    0.40
 -11  -8   1    0.13    0.40
 -10  -8   1   -0.17    0.36
 -10  -8   1    0.16    0.37
  -9  -8   1   -0.35    0.30
  -9  -8   1    0.00    0.30
  -8  -8   1    0.94    0.31
  -8  -8   1    1.04    0.34
  -7  -8   1    4.78    0.48
  -7  -8   1    5.34    0.51
  -6  -8   1    1.68    0.34
  -6  -8   1    2.45    0.34
  -5  -8   1    0.08    0.23
  -5  -8   1    0.07    0.21
  -4  -8   1    3.92    0.42
  -4  -8   1    4.06    0.44
  -3  -8   1   34.76    1.35
  -3  -8   1   34.57    1.43
  -3  -8   1   35.14    1.43
  -2  -8   1    0.63    0.23
  -2  -8   1    0.84    0.28
  -2  -8   1    0.57    0.27
  -1  -8   1    3.43    0.43
  -1  -8   1    3.06    0.43
  -1  -8   1    3.25    0.44
   0  -8   1    1.82    0.39
   0  -8   1    1.49    0.39
   0  -8   1    1.85    0.41
   1  -8   1    1.97    0.48
   1  -8   1    1.34    0.43
   1  -8   1    1.36    0.44
   2  -8   1    0.02    0.38
   2  -8   1    0.05    0.40
   2  -8   1   -0.04    0.41
   3  -8   1    2.31    0.56
   3  -8   1    1.99    0.57
   3  -8   1    1.29    0.56
   4  -8   1   10.65    1.11
   4  -8   1   11.27    1.13
   5  -8   1   17.21    1.41
   5  -8   1   12.47    1.25
 -13  -7   1    1.22    0.60
 -13  -7   1    1.76    0.64
 -12  -7   1    0.35    0.46
 -12  -7   1    0.56    0.50
 -11  -7   1    2.23    0.51
 -11  -7   1    1.67    0.48
 -10  -7   1    2.93    0.50
 -10  -7   1    3.19    0.49
  -9  -7   1    1.90    0.38
  -9  -7   1    2.56    0.43
  -8  -7   1    0.09    0.26
  -8  -7   1    0.40    0.27
  -7  -7   1    2.21    0.33
  -7  -7   1    1.81    0.31
  -6  -7   1   -0.07    0.20
  -6  -7   1    0.22    0.21
  -5  -7   1    1.39    0.27
  -5  -7   1    2.00    0.30
  -5  -7   1    2.09    0.26
  -4  -7   1    0.81    0.24
  -4  -7   1    1.06    0.23
  -4  -7   1    1.17    0.19
  -3  -7   1    9.19    0.49
  -3  -7   1    9.46    0.57
  -3  -7   1    9.14    0.56
  -3  -7   1    9.02    0.49
  -2  -7   1    9.65    0.60
  -2  -7   1    9.38    0.54
  -2  -7   1    9.78    0.59
  -1  -7   1    2.67    0.37
  -1  -7   1    3.24    0.40
  -1  -7   1    3.12    0.38
   0  -7   1    1.31    0.33
   0  -7   1    1.14    0.30
   0  -7   1    1.45    0.33
   1  -7   1    4.71    0.54
   1  -7   1    5.53    0.60
   1  -7   1    5.09    0.54
   2  -7   1    0.59    0.35
   2  -7   1    0.29    0.34
   2  -7   1    0.58    0.35
   3  -7   1    1.62    0.45
   3  -7   1    0.69    0.42
   3  -7   1    1.34    0.47
   4  -7   1    6.67    0.84
   4  -7   1    6.84    0.82
   5  -7   1    0.26    0.52
   5  -7   1   -0.01    0.47
   6  -7   1    0.80    0.57
   6  -7   1    0.66    0.66
   7  -7   1    1.08    0.75
   7  -7   1    0.48    0.62
 -11  -6   1    4.84    2.05
 -11  -6   1    0.31    0.42
 -11  -6   1    0.25    0.39
 -10  -6   1    8.12    0.73
 -10  -6   1    8.64    0.73
  -9  -6   1    0.59    0.30
  -9  -6   1    0.80    0.32
  -8  -6   1   10.98    0.66
  -8  -6   1   10.05    0.66
  -7  -6   1    4.09    0.41
  -7  -6   1    4.22    0.43
  -6  -6   1    6.49    0.42
  -6  -6   1    6.09    0.44
  -6  -6   1    5.98    0.45
  -5  -6   1   11.64    0.58
  -5  -6   1   11.09    0.56
  -5  -6   1   11.03    0.57
  -4  -6   1   26.18    1.05
  -4  -6   1   27.00    1.08
  -4  -6   1   27.48    1.07
  -3  -6   1    2.64    0.26
  -3  -6   1    2.98    0.31
  -3  -6   1    3.30    0.31
  -2  -6   1    2.40    0.27
  -2  -6   1    2.33    0.28
  -2  -6   1    2.32    0.29
  -2  -6   1    2.12    0.24
  -1  -6   1   -0.06    0.18
  -1  -6   1   -0.07    0.10
  -1  -6   1   -0.03    0.17
  -1  -6   1    0.04    0.09
   0   6  -1    8.38    0.43
   0  -6   1    9.55    0.66
   0  -6   1    8.45    0.54
   0  -6   1    8.36    0.54
   0  -6   1    7.88    0.56
   1  -6   1   -0.04    0.20
   1  -6   1   -0.20    0.22
   1  -6   1   -0.18    0.21
   2  -6   1    6.77    0.57
   2  -6   1    6.45    0.60
   2  -6   1    6.39    0.58
   3  -6   1    2.80    0.48
   3  -6   1    2.61    0.47
   3  -6   1    3.16    0.52
   4  -6   1    2.21    0.47
   4  -6   1    2.22    0.53
   4  -6   1    2.48    0.54
   5  -6   1   14.34    1.09
   5  -6   1   14.81    1.04
   6  -6   1    3.55    0.71
   6  -6   1    3.05    0.65
   7  -6   1    1.16    0.61
   7  -6   1   -0.08    0.52
   8  -6   1    2.81    0.81
   8  -6   1    3.31    0.83
 -12  -5   1    1.68    0.54
 -12  -5   1    1.43    0.56
 -12  -5   1    5.16    2.06
 -11  -5   1    2.91    1.53
 -11  -5   1    0.52    0.42
 -11  -5   1    0.54    0.40
 -10  -5   1    2.50    0.49
 -10  -5   1    1.78    0.43
 -10  -5   1    1.46    1.18
  -9  -5   1    0.16    0.29
  -9  -5   1    0.10    0.77
  -9  -5   1    0.34    0.31
  -8  -5   1    0.33    0.25
  -8  -5   1   -0.19    1.03
  -8  -5   1    0.78    0.27
  -7  -5   1    9.58    1.74
  -7  -5   1    8.93    0.58
  -7  -5   1    9.82    0.58
  -6  -5   1    0.01    0.16
  -6  -5   1    0.03    0.13
  -6  -5   1    0.19    0.18
  -5  -5   1    8.21    0.47
  -5  -5   1    7.14    0.44
  -5  -5   1    7.67    0.44
  -4  -5   1   10.49    0.53
  -4  -5   1   10.91    0.54
  -4  -5   1   12.14    0.53
  -3  -5   1   11.15    0.52
  -3  -5   1   12.19    0.55
  -3  -5   1   11.50    0.54
  -2  -5   1    4.12    0.29
  -2  -5   1    4.32    0.32
  -2  -5   1    3.94    0.31
  -2  -5   1    4.75    0.30
  -2  -5   1    5.15    0.30
   1   5  -1    4.66    0.29
  -1  -5   1    4.34    0.30
  -1  -5   1    4.21    0.30
  -1  -5   1    4.17    0.34
  -1  -5   1    4.33    0.34
   0   5  -1    0.77    0.15
   0   5  -1    1.12    0.15
   0  -5   1    0.86    0.22
   0  -5   1    0.65    0.21
   0  -5   1    0.80    0.15
  -1   5  -1    0.57    0.13
  -1   5  -1    0.67    0.14
   1  -5   1    0.43    0.22
   1  -5   1    0.53    0.23
   1  -5   1    0.59    0.15
   1  -5   1    0.48    0.12
   1  -5   1    0.43    0.23
  -2   5  -1    5.39    0.36
  -2   5  -1    5.60    0.40
   2  -5   1    6.06    0.52
   2  -5   1    4.83    0.49
   2  -5   1    5.83    0.48
  -3   5  -1    0.36    0.14
  -3   5  -1    0.40    0.18
   3  -5   1    0.27    0.29
   3  -5   1    0.88    0.30
   3  -5   1    0.32    0.26
   4  -5   1   14.20    0.87
   4  -5   1   13.13    0.90
   4  -5   1   14.85    0.91
   5  -5   1    4.80    0.67
   5  -5   1    2.60    0.49
   6  -5   1    1.69    0.51
   6  -5   1    1.48    0.45
   7  -5   1   -0.42    0.44
   7  -5   1   -0.11    0.46
   8  -5   1    2.02    0.70
   8  -5   1    1.50    0.59
   9  -5   1    5.71    1.04
   9  -5   1    5.76    0.93
 -12  -4   1    2.36    0.63
 -12  -4   1    2.35    2.33
 -12  -4   1    1.87    0.58
 -11  -4   1    1.80    0.55
 -11  -4   1    0.56    0.43
 -11  -4   1    1.19    1.43
 -10  -4   1    6.45    1.32
 -10  -4   1   10.99    0.81
 -10  -4   1   10.23    0.81
  -9  -4   1    0.80    0.34
  -9  -4   1    0.43    0.55
  -9  -4   1    0.49    0.30
  -8  -4   1   46.61    1.95
  -8  -4   1   48.62    1.95
  -8  -4   1   53.57    3.13
   7   4  -1    5.18    0.32
  -7  -4   1    5.02    0.44
  -7  -4   1    5.03    0.46
   6   4  -1    3.90    0.26
  -6  -4   1    3.44    0.32
  -6  -4   1    2.43    0.73
  -6  -4   1    2.53    0.24
  -6  -4   1    3.99    0.36
   5   4  -1   28.11    1.04
  -5  -4   1   31.33    1.12
  -5  -4   1   27.76    1.09
  -5  -4   1   26.40    1.09
  -5  -4   1   23.78    2.54
  -4  -4   1   52.62    2.03
  -4  -4   1   61.47    2.05
  -4  -4   1   58.62    2.04
  -3  -4   1   10.15    0.46
  -3  -4   1    9.78    0.46
  -3  -4   1   10.09    0.47
   2   4  -1  117.63    3.89
  -2  -4   1  117.41    3.88
  -2  -4   1  114.36    3.89
  -2  -4   1  113.06    3.90
  -2  -4   1  109.88    3.89
   1   4  -1    3.13    0.18
   1   4  -1    2.82    0.20
  -1  -4   1    2.60    0.26
  -1  -4   1    2.85    0.23
  -1  -4   1    3.04    0.28
  -1  -4   1    2.50    0.22
   0   4  -1   88.26    3.07
   0   4  -1   91.35    3.06
   0  -4   1   88.38    3.12
   0  -4   1   88.25    3.11
  -1   4  -1    4.45    0.30
  -1   4  -1    3.93    0.28
   1  -4   1    4.09    0.30
   1  -4   1    3.99    0.36
   1  -4   1    4.28    0.30
   1  -4   1    3.84    0.35
  -2   4  -1   16.83    0.80
  -2   4  -1   18.15    0.79
   2  -4   1   18.13    0.87
   2  -4   1   17.59    0.87
   2  -4   1   19.30    0.85
   2  -4   1   18.64    0.82
   2  -4   1   18.70    0.81
  -3   4  -1    0.54    0.20
  -3   4  -1    0.96    0.21
   3  -4   1    0.88    0.25
   3  -4   1    1.02    0.29
   3  -4   1    0.47    0.25
  -4   4  -1   12.19    0.70
  -4   4  -1   12.16    0.68
   4  -4   1   11.20    0.77
   4  -4   1   12.19    0.76
   4  -4   1   13.76    0.79
  -5   4  -1   18.35    0.93
  -5   4  -1   17.67    0.95
   5  -4   1   18.79    1.06
   5  -4   1   19.67    1.03
  -6   4  -1    0.69    0.30
   6  -4   1   -0.05    0.32
   6  -4   1    0.24    0.39
   7  -4   1    0.80    0.41
   7  -4   1    0.93    0.43
   8  -4   1    1.07    0.52
   8  -4   1    0.50    0.51
   9  -4   1    2.05    0.68
   9  -4   1    1.92    0.65
 -13  -3   1    2.57    0.73
 -13  -3   1    6.56    3.40
 -13  -3   1    2.46    0.70
 -12  -3   1    1.06    0.58
 -12  -3   1    0.61    0.56
 -12  -3   1    4.40    3.10
 -11  -3   1    0.52    1.94
 -11  -3   1    0.40    0.46
 -11  -3   1    0.56    0.46
 -10  -3   1    0.15    0.37
 -10  -3   1   -0.05    1.31
 -10  -3   1    0.28    0.35
  -9  -3   1   11.53    0.78
  -9  -3   1    9.20    1.52
  -9  -3   1   11.30    0.77
   8   3  -1    5.76    0.46
  -8  -3   1    4.60    0.51
  -8  -3   1    5.76    0.54
   7   3  -1    5.98    0.40
  -7  -3   1    5.78    0.48
  -7  -3   1    6.22    0.50
   6   3  -1    2.81    0.26
  -6  -3   1    1.86    0.64
  -6  -3   1    2.51    0.31
  -6  -3   1    2.97    0.29
  -6  -3   1    2.43    0.31
   5   3  -1    4.77    0.30
  -5  -3   1    4.27    0.33
  -5  -3   1    5.14    1.16
  -5  -3   1    4.57    0.36
   4   3  -1   13.27    0.53
  -4  -3   1   12.67    0.56
  -4  -3   1   12.57    0.56
  -4  -3   1    9.81    1.45
  -4  -3   1   12.75    0.56
  -3  -3   1    0.22    0.11
   2   3  -1   37.77    1.33
   2   3  -1   39.06    1.35
  -2  -3   1   38.48    1.38
  -2  -3   1   39.05    1.37
  -2  -3   1   38.58    1.37
   1   3  -1   17.28    0.64
   1   3  -1   16.95    0.65
  -1  -3   1   17.35    0.67
  -1  -3   1   17.79    0.68
  -1  -3   1   17.29    0.69
  -1  -3   1   16.47    0.68
   0   3  -1    4.88    0.26
   0   3  -1    4.59    0.27
   0  -3   1    5.08    0.32
   0  -3   1    4.44    0.30
  -1   3  -1  122.80    4.20
  -1   3  -1  120.96    4.21
   1  -3   1  122.22    4.24
   1  -3   1  122.39    4.24
   1  -3   1  126.38    4.22
   1  -3   1  124.40    4.23
  -2   3  -1    3.34    0.27
  -2   3  -1    3.02    0.27
   2  -3   1    3.60    0.27
   2  -3   1    3.20    0.33
   2  -3   1    3.53    0.37
   2  -3   1    3.39    0.27
  -3   3  -1    0.50    0.16
  -3   3  -1    1.17    0.21
   3  -3   1    1.57    0.29
   3  -3   1    1.13    0.24
   3  -3   1    0.85    0.22
  -4   3  -1   11.72    0.67
  -4   3  -1   12.37    0.70
   4  -3   1   12.82    0.71
   4  -3   1   13.93    0.77
   4  -3   1   14.10    0.76
  -5   3  -1   46.31    1.92
  -5   3  -1   47.71    1.91
   5  -3   1   48.88    1.99
   5  -3   1   51.07    1.94
  -6   3  -1    0.53    0.24
  -6   3  -1    0.59    0.26
   6  -3   1    0.39    0.30
   6  -3   1    0.02    0.29
  -7   3  -1    9.81    0.70
  -7   3  -1   10.36    0.76
   7  -3   1    9.34    0.82
   7  -3   1   11.05    0.88
  -8   3  -1    9.14    0.81
   8  -3   1   10.09    0.93
   8  -3   1    9.20    0.88
   9  -3   1   18.84    1.26
   9  -3   1   18.14    1.32
  10  -3   1   -0.63    0.53
 -13  -2   1   13.36    4.56
 -13  -2   1    7.87    1.04
 -13  -2   1    9.42    1.14
 -12  -2   1    0.24    0.57
 -12  -2   1   -0.83    0.46
 -11  -2   1    2.06    0.57
 -11  -2   1    4.05    2.45
 -11  -2   1    2.26    0.60
 -10  -2   1    3.07    0.56
 -10  -2   1    3.98    1.68
 -10  -2   1    2.80    0.57
  -9  -2   1    0.33    0.36
  -9  -2   1    2.04    1.13
  -9  -2   1    0.28    0.32
   8   2  -1    6.62    0.52
  -8  -2   1    6.59    0.59
  -8  -2   1    7.05    0.64
  -7  -2   1    2.09    0.82
  -7  -2   1    2.25    0.35
  -7  -2   1    2.05    0.32
   6   2  -1    9.58    0.54
  -6  -2   1    8.91    0.58
  -6  -2   1    9.36    0.56
  -6  -2   1   10.10    0.55
  -6  -2   1   11.85    1.85
   4   2  -1   77.24    2.61
  -4  -2   1   79.86    2.63
  -4  -2   1   71.42    2.61
  -4  -2   1   74.59    2.61
  -4  -2   1   70.76    3.20
   3   2  -1    6.23    0.33
  -3  -2   1    5.63    0.34
  -3  -2   1    8.63    1.10
  -3  -2   1    6.71    0.34
   2   2  -1   29.42    0.97
  -2  -2   1   29.15    0.98
  -2  -2   1   28.63    0.99
  -2  -2   1   23.19    0.97
  -2  -2   1   24.34    1.67
   1   2  -1    0.73    0.09
   1   2  -1    0.70    0.11
  -1  -2   1    0.83    0.11
  -1  -2   1    0.63    0.10
  -1  -2   1    0.86    0.12
  -1  -2   1    0.45    0.09
   0   2  -1   19.59    0.76
   0   2  -1   19.17    0.77
   0  -2   1   22.78    0.79
   0  -2   1   21.71    0.80
  -1   2  -1   12.81    0.56
  -1   2  -1   13.35    0.56
   1  -2   1   13.42    0.59
   1  -2   1   13.63    0.59
   1  -2   1   13.78    0.58
   1  -2   1   13.82    0.57
  -2   2  -1   34.10    1.31
  -2   2  -1   34.52    1.32
   2  -2   1   36.32    1.32
   2  -2   1   35.84    1.35
   2  -2   1   35.63    1.34
   2  -2   1   35.47    1.35
  -3   2  -1    0.88    0.18
  -3   2  -1    0.64    0.17
   3  -2   1    0.55    0.19
   3  -2   1    0.36    0.16
   3  -2   1    0.56    0.20
  -4   2  -1   12.09    0.61
  -4   2  -1   11.06    0.62
   4  -2   1   11.59    0.67
   4  -2   1   11.90    0.66
   4  -2   1   11.71    0.63
  -5   2  -1    6.12    0.46
  -5   2  -1    7.00    0.52
   5  -2   1    6.31    0.55
   5  -2   1    5.81    0.50
  -6   2  -1   -0.14    0.22
  -6   2  -1    0.00    0.20
   6  -2   1   -0.11    0.25
   6  -2   1    0.19    0.23
  -7   2  -1    0.78    0.33
  -7   2  -1    0.82    0.30
   7  -2   1    1.13    0.36
   7  -2   1    1.23    0.40
  -8   2  -1    0.11    0.26
  -8   2  -1    0.27    0.30
   8  -2   1    0.28    0.40
   8  -2   1    0.36    0.37
  -9   2  -1    4.72    0.68
  -9   2  -1    4.99    0.99
   9  -2   1    4.84    0.70
   9  -2   1    4.34    0.64
  10  -2   1    0.32    0.52
 -11   2  -1    0.41    2.75
 -12  -1   1    0.28    2.98
 -12  -1   1    0.10    0.53
 -12  -1   1    0.11    0.53
 -11  -1   1   -2.86    2.49
 -11  -1   1    0.19    0.54
 -11  -1   1    0.83    0.49
 -10  -1   1    5.63    0.77
 -10  -1   1    5.65    2.01
 -10  -1   1    3.84    0.63
  -9  -1   1    4.75    0.60
  -9  -1   1    3.53    1.39
  -9  -1   1    5.41    0.62
   8   1  -1    9.81    0.68
  -8  -1   1    9.36    0.69
  -8  -1   1    9.79    0.73
  -8  -1   1    9.00    1.53
   7   1  -1    4.77    0.46
  -7  -1   1    5.72    0.48
  -7  -1   1    3.96    0.46
   6   1  -1    5.23    0.43
  -6  -1   1    5.34    0.44
  -6  -1   1    4.76    0.45
   5   1  -1    3.87    0.35
  -5  -1   1    4.19    0.37
  -5  -1   1    4.12    0.35
   4   1  -1  191.90    6.61
  -4  -1   1  198.66    6.62
  -4  -1   1  192.29    6.61
  -4  -1   1  199.33    6.63
   3   1  -1   16.73    0.68
  -3  -1   1   15.69    0.68
  -3  -1   1   16.94    0.69
  -3  -1   1   16.36    0.67
   2   1  -1   28.81    0.97
   2   1  -1   27.16    0.96
  -2  -1   1   28.23    0.97
  -2  -1   1   22.50    0.96
  -2  -1   1   26.94    0.97
   1   1  -1  102.38    3.38
   1   1  -1  101.68    3.37
   1   1  -1   94.81    3.52
   1   1  -1  103.76    3.37
  -1  -1   1  102.17    3.38
  -1  -1   1   98.86    3.38
  -1  -1   1  100.34    3.57
   0   1  -1   78.07    2.45
   0   1  -1   70.64    2.44
   0   1  -1   67.83    2.44
   0  -1   1   72.24    2.45
  -1   1  -1    0.29    0.11
  -1   1  -1    0.03    0.09
  -1   1  -1    0.19    0.08
   1  -1   1    0.23    0.09
   1  -1   1    0.37    0.11
   1  -1   1    0.12    0.09
   1  -1   1    0.15    0.10
  -2   1  -1    1.55    0.18
  -2   1  -1    1.51    0.20
   2  -1   1    1.24    0.16
   2  -1   1    1.70    0.23
   2  -1   1    1.26    0.20
   2  -1   1    1.30    0.21
  -3   1  -1    8.49    0.45
  -3   1  -1    8.04    0.43
   3  -1   1    8.23    0.47
   3  -1   1    8.64    0.45
   3  -1   1    7.85    0.46
  -4   1  -1    2.91    0.34
  -4   1  -1    2.15    0.26
   4  -1   1    2.33    0.30
   4  -1   1    2.66    0.33
   4  -1   1    1.97    0.28
  -5   1  -1    0.95    0.25
  -5   1  -1    1.04    0.24
   5  -1   1    0.58    0.21
   5  -1   1    0.97    0.25
  -6   1  -1    1.23    0.27
  -6   1  -1    1.40    0.31
   6  -1   1    0.91    0.29
   6  -1   1    0.62    0.25
  -7   1  -1   -0.08    0.21
  -7   1  -1   -0.13    0.24
   7  -1   1   -0.43    0.21
   7  -1   1    0.03    0.27
  -8   1  -1    0.29    0.27
  -8   1  -1    0.24    0.31
   8  -1   1    0.40    0.34
   8  -1   1    0.74    0.31
  -9   1  -1    4.12    0.57
  -9   1  -1    2.66    0.55
   9  -1   1    3.50    0.58
   9  -1   1    2.54    0.48
 -10   1  -1   -0.65    0.32
 -10   1  -1   -0.39    0.41
  10  -1   1    0.10    0.44
 -11   1  -1   -0.30    0.51
 -12   0   1   -1.74    2.93
 -12   0   1   -0.01    0.61
 -11   0   1    0.45    0.52
 -11   0   1   -4.00    2.53
 -11   0   1   -0.04    0.46
 -10   0   1   -0.17    0.44
 -10   0   1    1.45    2.10
 -10   0   1   -0.12    0.37
   9   0  -1    3.67    0.55
  -9   0   1    4.63    0.65
  -9   0   1    3.07    0.53
   8   0  -1    2.91    0.49
  -8   0   1    1.17    0.39
  -8   0   1    2.69    0.44
   7   0  -1    7.01    0.57
  -7   0   1    7.40    0.57
  -7   0   1    7.71    0.62
   6   0  -1    4.13    0.48
  -6   0   1    2.45    0.35
  -6   0   1    2.74    0.38
   5   0  -1    0.07    0.17
  -5   0   1    0.12    0.20
  -5   0   1    0.57    0.19
   4   0  -1  172.18    5.92
  -4   0   1  177.78    5.92
  -4   0   1  170.57    5.91
   2   0  -1  249.09    8.16
   2   0  -1  238.89    8.15
  -2   0   1  240.77    8.16
  -2   0   1  241.06    8.15
  -2   0   1  251.34    8.14
  -2   0   1  245.11    8.16
   0   0  -1   -0.14    0.02
   0   0  -1   -0.11    0.02
   0   0  -1   -0.15    0.02
   0   0   1   -0.12    0.02
   0   0   1   -0.11    0.03
   0   0   1   -0.06    0.03
  -1   0  -1  156.89    5.14
  -1   0  -1  158.72    5.16
  -1   0  -1  153.69    5.15
  -1   0  -1  159.83    5.16
   1   0   1  159.93    5.14
   1   0   1  131.13    5.14
   1   0   1  160.67    5.15
  -2   0  -1   54.71    1.83
  -2   0  -1   54.71    1.83
  -2   0  -1   53.50    1.82
   2   0   1   49.20    1.82
   2   0   1   54.01    1.81
   2   0   1   46.26    1.81
  -3   0  -1  115.84    3.98
  -3   0  -1  114.70    3.96
  -3   0  -1  116.62    3.98
   3   0   1  114.69    3.97
   3   0   1  117.81    3.98
   3   0   1  117.28    3.95
  -4   0  -1   22.72    0.92
  -4   0  -1   22.13    0.93
   4   0   1   23.52    0.95
   4   0   1   21.24    0.90
  -5   0  -1    4.64    0.36
  -5   0  -1    4.10    0.39
   5   0   1    4.35    0.36
   5   0   1    5.17    0.41
  -6   0  -1    4.82    0.46
  -6   0  -1    4.45    0.41
   6   0   1    4.94    0.49
   6   0   1    4.13    0.40
  -7   0  -1    7.45    0.58
  -7   0  -1    7.13    0.54
   7   0   1    6.59    0.57
   7   0   1    5.87    0.51
  -8   0  -1    5.78    0.66
  -8   0  -1    5.60    0.55
   8   0   1    4.60    0.55
   8   0   1    5.87    0.57
 -10   0  -1    0.15    0.41
 -10   0  -1    0.59    0.39
 -10   0  -1   -0.82    1.73
  10   0   1   -0.04    0.38
 -11   0  -1   -1.18    2.39
 -11   0  -1    0.71    0.51
 -11   0  -1    0.80    0.57
 -12   0  -1    2.55    0.80
 -12   0  -1   -1.35    2.39
 -11   1   1   -1.55    3.04
 -11   1   1   -0.01    0.56
 -10   1   1    1.31    0.46
 -10   1   1   -0.04    0.47
   9  -1  -1    1.21    0.46
  -9   1   1    0.87    0.37
  -9   1   1    1.01    0.43
   8  -1  -1   11.57    0.82
  -8   1   1   10.70    0.82
  -8   1   1    9.74    0.74
   7  -1  -1    1.78    0.38
  -7   1   1    2.04    0.42
  -7   1   1    1.86    0.35
   6  -1  -1    3.12    0.38
   6  -1  -1    2.97    0.39
  -6   1   1    3.43    0.41
  -6   1   1    3.64    0.42
   5  -1  -1   19.19    0.91
   5  -1  -1   18.81    0.85
  -5   1   1   17.34    0.88
  -5   1   1   19.92    0.88
   4  -1  -1   80.38    2.89
   4  -1  -1   81.49    2.85
  -4   1   1   77.76    2.87
  -4   1   1   83.91    2.90
   3  -1  -1  111.69    3.88
   3  -1  -1  114.22    3.92
  -3   1   1  112.17    3.89
  -3   1   1  115.10    3.91
   2  -1  -1    0.17    0.14
   2  -1  -1    0.15    0.11
   2  -1  -1    0.09    0.10
   2  -1  -1    0.03    0.11
  -2   1   1    0.09    0.13
  -2   1   1    0.03    0.11
   1  -1  -1   26.07    0.94
   1  -1  -1   27.50    0.95
   1  -1  -1   25.60    0.95
  -1   1   1   27.43    0.95
  -1   1   1   25.27    0.94
  -1   1   1   24.38    0.93
  -1   1   1   26.88    0.93
  -1  -1  -1   43.84    1.38
  -1  -1  -1   39.41    1.37
  -1  -1  -1   42.24    1.38
  -1  -1  -1   37.51    1.37
  -2  -1  -1  517.75   16.89
  -2  -1  -1  494.13   16.90
  -2  -1  -1  479.12   17.58
   2   1   1  503.42   16.96
   2   1   1  539.64   17.85
   2   1   1  510.42   16.94
  -3  -1  -1   47.36    1.67
  -3  -1  -1   45.72    1.65
  -3  -1  -1   48.89    1.67
  -3  -1  -1   45.52    1.66
  -3  -1  -1   47.62    2.11
   3   1   1   46.82    1.66
   3   1   1   45.41    1.63
  -4  -1  -1  179.42    6.61
  -4  -1  -1  183.39    6.17
  -4  -1  -1  180.20    6.15
  -4  -1  -1  185.65    6.18
  -4  -1  -1  184.86    6.17
   4   1   1  179.44    6.12
   4   1   1  181.14    6.16
  -6  -1  -1   22.48    2.11
  -6  -1  -1   21.21    0.97
  -6  -1  -1   22.90    1.00
   6   1   1   21.85    0.93
   6   1   1   20.31    0.97
  -8  -1  -1    0.37    0.91
  -8  -1  -1    0.95    0.31
  -8  -1  -1    1.10    0.33
   8   1   1    0.93    0.28
   8   1   1    0.62    0.27
  -9  -1  -1    4.52    0.55
  -9  -1  -1    5.38    0.66
  -9  -1  -1    4.35    1.43
   9   1   1    4.75    0.53
   9   1   1    4.25    0.53
 -10  -1  -1    3.20    0.55
 -10  -1  -1    0.79    1.68
 -10  -1  -1    2.49    0.59
 -11  -1  -1    2.22    0.59
 -11  -1  -1    1.59    2.31
 -11  -1  -1    1.94    0.64
 -12  -1  -1   -1.87    2.56
 -12  -1  -1    1.67    0.71
 -12  -1  -1    1.05    0.57
 -10   2   1    3.01    0.67
   9  -2  -1    0.03    0.39
  -9   2   1   -0.50    0.29
  -9   2   1    0.52    0.42
   8  -2  -1    0.03    0.30
  -8   2   1   -0.02    0.32
  -8   2   1    0.07    0.27
   7  -2  -1    1.75    0.40
   7  -2  -1    1.85    0.41
  -7   2   1    0.70    0.30
  -7   2   1    1.80    0.42
   6  -2  -1    2.01    0.42
   6  -2  -1    1.32    0.31
  -6   2   1    1.33    0.31
  -6   2   1    1.48    0.33
   5  -2  -1    8.66    0.59
   5  -2  -1    8.85    0.55
  -5   2   1    7.54    0.56
  -5   2   1    7.70    0.52
   4  -2  -1   44.00    1.70
   4  -2  -1   43.62    1.65
  -4   2   1   43.56    1.68
  -4   2   1   41.93    1.65
   3  -2  -1    0.56    0.17
   3  -2  -1    0.61    0.15
   3  -2  -1    0.33    0.17
  -3   2   1    0.48    0.15
  -3   2   1    0.55    0.19
   2  -2  -1   17.60    0.74
   2  -2  -1   19.26    0.76
   2  -2  -1   18.43    0.74
   2  -2  -1   18.16    0.77
  -2   2   1   17.81    0.75
  -2   2   1   17.22    0.73
   1  -2  -1    7.53    0.35
   1  -2  -1    7.48    0.36
   1  -2  -1    7.38    0.37
   1  -2  -1    7.69    0.38
  -1   2   1    7.37    0.34
  -1   2   1    7.26    0.36
   0  -2  -1   22.01    0.81
   0  -2  -1   22.84    0.81
   0  -2  -1   21.24    0.81
   0  -2  -1   22.84    0.80
   0  -2  -1   22.66    0.81
   0   2   1   23.64    0.82
   0   2   1   23.35    0.80
   0   2   1   23.21    0.80
   1   2   1  675.64   22.39
  -2  -2  -1  155.99    5.16
  -2  -2  -1  154.84    5.15
  -3  -2  -1  206.89    6.89
  -3  -2  -1  211.88    7.40
  -3  -2  -1  204.00    6.89
  -3  -2  -1  198.48    6.89
   3   2   1  209.56    6.89
   3   2   1  208.64    6.86
  -4  -2  -1    8.70    1.32
  -4  -2  -1    7.59    0.39
  -4  -2  -1    7.02    0.40
   4   2   1    7.41    0.35
   4   2   1    7.31    0.39
  -5  -2  -1  174.19    5.91
  -5  -2  -1  173.16    5.92
  -5  -2  -1  177.70    6.60
  -5  -2  -1  178.17    5.93
  -5  -2  -1  173.55    5.92
   5   2   1  170.51    5.91
   5   2   1  170.94    5.86
  -6  -2  -1   15.03    0.71
  -6  -2  -1   14.35    1.75
  -6  -2  -1   15.10    0.71
  -6  -2  -1   14.67    0.72
  -6  -2  -1   14.58    0.73
   6   2   1   14.01    0.66
   6   2   1   16.07    0.73
  -7  -2  -1   19.36    0.92
  -7  -2  -1   21.26    0.93
  -7  -2  -1   17.91    0.93
   7   2   1   18.69    0.85
   7   2   1   19.70    0.92
  -8  -2  -1    2.38    0.90
  -8  -2  -1    3.91    0.52
  -8  -2  -1    3.57    0.44
   8   2   1    3.17    0.42
   8   2   1    3.80    0.40
  -9  -2  -1   12.21    0.81
  -9  -2  -1   17.61    3.52
  -9  -2  -1   11.38    0.84
 -10  -2  -1    0.12    0.35
 -10  -2  -1   -0.29    0.35
 -10  -2  -1    2.96    1.57
 -11  -2  -1    0.48    2.22
 -11  -2  -1    0.06    0.43
 -11  -2  -1    0.21    0.44
 -12  -2  -1   -4.53    3.00
 -12  -2  -1    0.52    0.51
 -12  -2  -1    0.29    0.56
 -13  -2  -1    2.06    0.79
 -13  -2  -1    5.28    3.35
 -13  -2  -1    1.98    0.71
   9  -3  -1    6.55    0.79
   8  -3  -1    0.05    0.35
  -8   3   1   -0.13    0.31
   7  -3  -1    0.36    0.38
   7  -3  -1    0.44    0.35
  -7   3   1    0.21    0.24
  -7   3   1    0.20    0.27
   6  -3  -1   17.02    0.95
   6  -3  -1   16.95    1.01
  -6   3   1   19.58    1.00
  -6   3   1   18.74    0.95
   5  -3  -1   -0.06    0.22
   5  -3  -1    0.23    0.27
  -5   3   1    0.37    0.21
  -5   3   1    0.24    0.20
   4  -3  -1    4.14    0.41
   4  -3  -1    3.92    0.47
  -4   3   1    3.48    0.37
  -4   3   1    3.44    0.37
   3  -3  -1   70.08    2.60
   3  -3  -1   69.90    2.56
   3  -3  -1   71.56    2.56
  -3   3   1   70.89    2.56
  -3   3   1   73.20    2.56
   2  -3  -1   12.89    0.65
   2  -3  -1   14.08    0.63
   2  -3  -1   13.98    0.63
   2  -3  -1   14.15    0.62
  -2   3   1   12.85    0.60
  -2   3   1   13.47    0.62
   1  -3  -1   25.25    1.00
   1  -3  -1   25.75    1.00
   1  -3  -1   26.07    1.01
   1  -3  -1   27.31    1.01
  -1   3   1   26.40    0.99
  -1   3   1   26.10    0.98
   0  -3  -1  247.27    7.99
   0  -3  -1  233.56    7.99
   0  -3  -1  247.29    7.99
   0  -3  -1  236.54    7.99
   0  -3  -1  241.54    7.98
   0   3   1  227.84    7.97
   0   3   1  243.39    7.96
  -1  -3  -1   93.45    3.15
  -1  -3  -1   94.53    3.15
  -1  -3  -1   95.22    3.17
  -3  -3  -1   13.56    0.52
  -3  -3  -1   14.63    0.53
  -3  -3  -1   13.39    0.51
  -4  -3  -1   36.57    1.30
  -4  -3  -1   34.99    2.25
  -4  -3  -1   35.87    1.30
  -4  -3  -1   37.56    1.31
   4   3   1   36.00    1.28
  -5  -3  -1   66.93    2.33
  -5  -3  -1   64.97    2.34
  -5  -3  -1   64.89    3.10
   5   3   1   68.08    2.32
  -6  -3  -1   62.45    2.18
  -6  -3  -1   58.30    3.07
  -6  -3  -1   57.88    2.17
  -6  -3  -1   59.92    2.18
   6   3   1   58.79    2.10
   6   3   1   61.54    2.16
  -7  -3  -1    9.49    1.91
  -7  -3  -1    6.34    0.50
  -7  -3  -1    8.01    0.47
  -7  -3  -1    7.33    0.45
  -7  -3  -1    6.51    0.48
   7   3   1    6.74    0.45
  -9  -3  -1    2.24    0.92
  -9  -3  -1    2.82    0.44
  -9  -3  -1    2.73    0.46
 -10  -3  -1    1.29    1.31
 -10  -3  -1    2.85    0.49
 -10  -3  -1    2.72    0.53
 -11  -3  -1    0.48    0.42
 -11  -3  -1   -0.64    1.76
 -11  -3  -1    0.37    0.44
 -12  -3  -1   -0.78    0.45
 -12  -3  -1    3.41    2.56
 -12  -3  -1    0.35    0.49
 -13  -3  -1    1.44    0.64
 -13  -3  -1    2.99    3.11
 -13  -3  -1    0.82    0.69
   9  -4  -1    3.32    0.74
   8  -4  -1   10.08    1.01
   7  -4  -1    2.78    0.61
   7  -4  -1    2.60    0.51
   6  -4  -1    6.36    0.74
   6  -4  -1    5.74    0.62
  -6   4   1    5.89    0.53
  -6   4   1    6.32    0.59
   5  -4  -1   43.53    1.86
   5  -4  -1   43.18    1.79
  -5   4   1   44.09    1.79
  -5   4   1   42.91    1.76
   4  -4  -1   30.85    1.34
   4  -4  -1   31.08    1.39
  -4   4   1   31.79    1.32
  -4   4   1   31.82    1.33
   3  -4  -1    5.44    0.34
   3  -4  -1    4.42    0.45
   3  -4  -1    4.70    0.41
  -3   4   1    4.45    0.36
  -3   4   1    4.40    0.38
   2  -4  -1    9.24    0.52
   2  -4  -1    9.37    0.48
   2  -4  -1    8.14    0.46
   2  -4  -1    8.38    0.52
  -2   4   1    8.58    0.47
  -2   4   1    8.89    0.46
   1  -4  -1   23.78    0.95
   1  -4  -1   23.28    0.96
   1  -4  -1   24.28    0.97
  -1   4   1   23.09    0.93
  -1   4   1   24.15    0.92
   0  -4  -1    2.22    0.20
   0  -4  -1    2.34    0.23
   0  -4  -1    1.63    0.20
   0  -4  -1    2.25    0.22
   0  -4  -1    2.40    0.20
   0   4   1    2.31    0.16
   0   4   1    2.08    0.18
  -1  -4  -1  100.25    3.33
  -1  -4  -1   97.48    3.33
  -1  -4  -1  100.84    3.33
  -1  -4  -1   96.95    3.32
  -1  -4  -1   97.50    3.34
  -2  -4  -1   24.35    0.85
  -4  -4  -1   43.73    1.49
  -4  -4  -1   42.06    1.50
  -5  -4  -1    0.58    0.14
  -5  -4  -1    0.51    0.14
  -5  -4  -1    0.61    0.14
  -6  -4  -1    0.78    0.18
  -6  -4  -1    1.06    0.57
  -7  -4  -1    8.60    1.92
  -7  -4  -1   10.13    0.57
  -7  -4  -1    9.82    0.58
   7   4   1   10.54    0.50
  -8  -4  -1    7.17    0.54
  -8  -4  -1    7.55    0.56
  -9  -4  -1   12.60    0.80
  -9  -4  -1   11.09    1.78
  -9  -4  -1   12.13    0.76
 -10  -4  -1    1.00    0.69
 -10  -4  -1    1.66    0.44
 -10  -4  -1    1.89    0.42
 -11  -4  -1    4.77    1.54
 -11  -4  -1    5.11    0.67
 -11  -4  -1    5.11    0.68
 -12  -4  -1    5.06    2.25
 -12  -4  -1    3.52    0.68
 -12  -4  -1    3.88    0.68
   9  -5  -1    0.36    0.63
   8  -5  -1    1.69    0.65
   7  -5  -1    9.03    0.87
   7  -5  -1    5.00    0.71
   6  -5  -1    0.20    0.38
   6  -5  -1   -0.43    0.32
   5  -5  -1    4.26    0.54
   5  -5  -1    4.27    0.57
   4  -5  -1   17.55    0.99
   4  -5  -1   18.89    0.95
  -4   5   1   17.11    0.88
  -4   5   1   17.19    0.85
   3  -5  -1   29.26    1.33
   3  -5  -1   30.48    1.31
  -3   5   1   29.47    1.26
  -3   5   1   31.69    1.25
   2  -5  -1   12.77    0.71
   2  -5  -1   12.50    0.71
   2  -5  -1   13.61    0.65
   2  -5  -1   13.49    0.70
   2  -5  -1   13.93    0.65
  -2   5   1   13.37    0.62
  -2   5   1   12.67    0.64
   1  -5  -1   12.19    0.64
   1  -5  -1   12.42    0.65
   1  -5  -1   12.08    0.62
  -1   5   1   13.44    0.59
  -1   5   1   13.08    0.57
   0  -5  -1   32.21    1.23
   0  -5  -1   32.98    1.21
   0  -5  -1   31.87    1.22
   0  -5  -1   32.83    1.20
   0  -5  -1   30.23    1.21
   0   5   1   31.52    1.17
   0   5   1   32.02    1.15
  -1  -5  -1   83.65    2.81
  -1  -5  -1   82.48    2.80
  -1  -5  -1   84.77    2.82
  -1  -5  -1   79.02    2.81
  -1  -5  -1   79.24    2.81
  -2  -5  -1   98.91    3.37
  -2  -5  -1   99.50    3.35
  -2  -5  -1  100.68    3.35
  -3  -5  -1   70.67    2.37
  -4  -5  -1   24.00    0.86
  -5  -5  -1    0.26    0.12
  -5  -5  -1    0.27    0.12
  -5  -5  -1    0.25    0.13
  -6  -5  -1    6.75    0.39
  -6  -5  -1    6.57    0.39
  -6  -5  -1    6.16    0.41
  -7  -5  -1    5.50    0.37
  -7  -5  -1    5.59    0.40
  -7  -5  -1    4.56    0.40
  -8  -5  -1   24.84    1.07
  -8  -5  -1   24.10    1.06
  -8  -5  -1   20.82    3.03
  -9  -5  -1   11.53    0.72
  -9  -5  -1    9.46    2.23
  -9  -5  -1   11.53    0.71
 -10  -5  -1    4.34    0.53
 -10  -5  -1    5.45    0.58
 -10  -5  -1    3.75    1.24
 -11  -5  -1    0.89    1.24
 -11  -5  -1   -0.10    0.36
 -11  -5  -1    0.16    0.37
 -12  -5  -1    8.76    0.90
 -12  -5  -1   10.13    0.95
   8  -6  -1   -0.06    0.56
   7  -6  -1    0.47    0.49
   6  -6  -1    8.99    0.91
   6  -6  -1    9.11    1.01
   5  -6  -1   -0.09    0.37
   5  -6  -1    0.07    0.34
   4  -6  -1    5.37    0.60
   4  -6  -1    6.32    0.64
   3  -6  -1    0.23    0.26
   3  -6  -1    0.15    0.29
   2  -6  -1    5.19    0.52
   2  -6  -1    5.14    0.48
  -2   6   1    6.20    0.39
  -2   6   1    5.64    0.36
   1  -6  -1    8.63    0.55
   1  -6  -1    8.24    0.54
   1  -6  -1    7.77    0.55
  -1   6   1    8.38    0.44
  -1   6   1    9.02    0.43
   0  -6  -1    0.06    0.10
   0  -6  -1    0.01    0.16
   0  -6  -1   -0.02    0.15
   0  -6  -1    0.05    0.10
   0  -6  -1   -0.01    0.17
  -1  -6  -1   54.25    1.93
  -1  -6  -1   54.26    1.92
  -1  -6  -1   53.08    1.94
  -1  -6  -1   55.14    1.94
  -1  -6  -1   53.05    1.94
  -2  -6  -1   99.65    3.38
  -2  -6  -1   96.65    3.38
  -2  -6  -1  100.92    3.38
  -2  -6  -1   99.27    3.37
  -2  -6  -1   99.23    3.38
  -3  -6  -1    3.63    0.23
  -3  -6  -1    3.62    0.21
  -3  -6  -1    3.55    0.20
  -4  -6  -1   24.01    0.87
  -5  -6  -1    0.46    0.13
  -6  -6  -1   20.49    0.82
  -6  -6  -1   19.44    0.81
  -6  -6  -1   20.44    0.82
  -7  -6  -1   16.11    0.72
  -7  -6  -1   15.42    0.71
  -7  -6  -1   15.60    0.72
  -8  -6  -1    1.49    0.27
  -8  -6  -1    1.50    0.28
  -9  -6  -1    1.02    0.28
  -9  -6  -1    0.85    0.27
 -10  -6  -1    1.00    0.33
 -10  -6  -1    0.62    0.31
 -11  -6  -1    0.63    0.37
 -11  -6  -1    0.97    0.43
 -11  -6  -1    3.92    1.85
   7  -7  -1    0.07    0.62
   6  -7  -1    0.31    0.54
   6  -7  -1    0.18    0.53
   5  -7  -1    1.77    0.54
   5  -7  -1    0.94    0.50
   4  -7  -1    0.09    0.37
   4  -7  -1    0.74    0.39
   3  -7  -1   16.93    1.03
   3  -7  -1   18.64    1.01
   2  -7  -1    0.00    0.28
   2  -7  -1    0.10    0.30
   1  -7  -1   32.92    1.34
   1  -7  -1   29.51    1.34
   1  -7  -1   31.18    1.34
   0  -7  -1    2.31    0.32
   0  -7  -1    1.69    0.30
   0  -7  -1    1.93    0.32
  -1  -7  -1   22.14    0.89
  -1  -7  -1   22.06    0.92
  -1  -7  -1   21.48    0.89
  -1  -7  -1   22.03    0.93
  -1  -7  -1   20.88    0.92
  -2  -7  -1    3.37    0.31
  -2  -7  -1    3.18    0.25
  -2  -7  -1    3.10    0.26
  -2  -7  -1    3.63    0.29
  -2  -7  -1    3.10    0.30
  -3  -7  -1    0.07    0.14
  -3  -7  -1   -0.10    0.09
  -3  -7  -1    0.04    0.10
  -4  -7  -1    0.72    0.15
  -5  -7  -1    1.21    0.17
  -6  -7  -1   21.43    0.84
  -7  -7  -1   11.94    0.59
  -7  -7  -1   12.02    0.58
  -7  -7  -1   12.50    0.60
  -8  -7  -1   -0.08    0.19
  -8  -7  -1   -0.07    0.20
  -9  -7  -1    1.06    0.29
  -9  -7  -1    0.42    0.27
 -10  -7  -1    2.63    0.43
 -10  -7  -1    2.47    0.41
 -11  -7  -1    4.90    0.59
 -11  -7  -1    5.34    0.62
 -12  -7  -1   -0.14    0.39
 -12  -7  -1    0.29    0.44
 -13  -7  -1    0.02    0.46
 -13  -7  -1   -0.12    0.51
   6  -8  -1    0.72    0.58
   5  -8  -1    1.70    0.66
   5  -8  -1    1.22    0.63
   4  -8  -1    1.77    0.55
   4  -8  -1    0.61    0.47
   3  -8  -1    1.07    0.44
   3  -8  -1    0.55    0.44
   2  -8  -1    1.14    0.40
   2  -8  -1    0.54    0.36
   1  -8  -1    0.62    0.32
   1  -8  -1    0.17    0.32
   1  -8  -1    0.38    0.29
   0  -8  -1    1.16    0.32
   0  -8  -1    1.94    0.35
   0  -8  -1    2.15    0.35
  -1  -8  -1    1.76    0.31
  -1  -8  -1    1.64    0.32
  -1  -8  -1    1.73    0.29
  -2  -8  -1   40.00    1.53
  -2  -8  -1   39.77    1.50
  -2  -8  -1   39.50    1.51
  -2  -8  -1   42.42    1.64
  -2  -8  -1   38.94    1.53
  -3  -8  -1    3.48    0.27
  -3  -8  -1    3.25    0.27
  -3  -8  -1    3.60    0.28
  -3  -8  -1    3.71    0.33
  -4  -8  -1    5.12    0.30
  -4  -8  -1    4.43    0.33
  -5  -8  -1   11.96    0.55
  -6  -8  -1    1.81    0.23
  -7  -8  -1    2.11    0.27
  -8  -8  -1    1.15    0.25
  -8  -8  -1    1.32    0.27
  -9  -8  -1    0.75    0.26
  -9  -8  -1    1.02    0.30
 -10  -8  -1    4.82    0.52
 -10  -8  -1    4.00    0.46
 -11  -8  -1    0.89    0.38
 -11  -8  -1    0.33    0.37
 -12  -8  -1    1.09    0.45
 -12  -8  -1    0.68    0.46
 -13  -8  -1    0.22    0.51
 -13  -8  -1   -0.22    0.47
   5  -9  -1    0.06    0.62
   4  -9  -1   -0.32    0.46
   4  -9  -1    0.71    0.63
   3  -9  -1    1.88    0.58
   3  -9  -1    2.36    0.60
   2  -9  -1   -0.36    0.39
   2  -9  -1   -0.21    0.39
   1  -9  -1    3.34    0.52
   1  -9  -1    2.23    0.47
   0  -9  -1    0.28    0.32
   0  -9  -1    0.36    0.32
   0  -9  -1    0.55    0.29
  -1  -9  -1    3.18    0.43
  -1  -9  -1    2.78    0.38
  -1  -9  -1    3.29    0.42
  -2  -9  -1    0.23    0.24
  -2  -9  -1   -0.04    0.17
  -2  -9  -1    0.22    0.24
  -3  -9  -1    0.63    0.24
  -3  -9  -1    0.65    0.24
  -4  -9  -1    1.55    0.27
  -4  -9  -1    1.72    0.21
  -5  -9  -1    0.67    0.21
  -6  -9  -1    2.50    0.29
  -7  -9  -1   10.23    0.57
  -8  -9  -1   -0.18    0.22
  -9  -9  -1    3.59    0.42
  -9  -9  -1    3.02    0.38
 -10  -9  -1   -0.09    0.27
 -10  -9  -1   -0.28    0.30
 -11  -9  -1   12.02    0.84
 -11  -9  -1    9.48    0.77
 -12  -9  -1    0.97    0.46
 -12  -9  -1    1.54    0.50
 -13  -9  -1    0.95    0.55
 -13  -9  -1    1.77    0.55
   3 -10  -1    2.81    0.74
   2 -10  -1    5.37    0.77
   2 -10  -1    5.51    0.82
   1 -10  -1    1.79    0.51
   1 -10  -1    1.48    0.51
   0 -10  -1    1.16    0.44
   0 -10  -1    0.50    0.41
   0 -10  -1    0.17    0.35
  -1 -10  -1    0.21    0.33
  -1 -10  -1    0.46    0.36
  -1 -10  -1   -0.21    0.30
  -2 -10  -1    4.30    0.52
  -2 -10  -1    3.64    0.47
  -3 -10  -1    2.11    0.36
  -3 -10  -1    2.15    0.36
  -4 -10  -1    2.83    0.36
  -5 -10  -1    0.96    0.26
  -6 -10  -1    0.82    0.27
  -7 -10  -1    2.39    0.34
  -8 -10  -1   -0.17    0.26
  -9 -10  -1   -0.03    0.30
 -10 -10  -1    0.07    0.34
 -11 -10  -1    1.99    0.43
 -11 -10  -1    2.22    0.50
 -12 -10  -1    0.87    0.49
 -12 -10  -1   -0.40    0.38
   2 -11  -1    6.20    0.92
   1 -11  -1    0.09    0.51
   0 -11  -1    2.31    0.58
  -1 -11  -1   -0.81    0.36
  -1 -11  -1   -0.16    0.40
  -2 -11  -1    5.68    0.63
  -2 -11  -1    5.42    0.61
  -3 -11  -1   -0.01    0.32
  -3 -11  -1   -0.06    0.32
  -4 -11  -1   -0.15    0.29
  -5 -11  -1    0.32    0.28
  -6 -11  -1    0.55    0.29
  -7 -11  -1    0.86    0.32
  -8 -11  -1    0.63    0.32
  -9 -11  -1   -0.12    0.34
 -10 -11  -1    0.94    0.39
 -11 -11  -1    1.33    0.47
  -1 -12  -1    2.12    0.59
  -2 -12  -1    0.43    0.46
  -2 -12  -1    1.03    0.48
  -3 -12  -1    3.58    0.57
  -3 -12  -1    4.80    0.61
  -4 -12  -1    0.18    0.38
  -5 -12  -1    3.31    0.47
  -6 -12  -1   -0.37    0.31
  -7 -12  -1    2.55    0.41
  -8 -12  -1    3.54    0.46
  -9 -12  -1    2.29    0.43
 -10 -12  -1    4.46    0.54
  -4 -13  -1    2.18    0.54
  -5 -13  -1    0.00    0.43
  -6 -13  -1    0.74    0.42
  -7 -13  -1   -0.39    0.35
  -9 -11   2    6.90    0.80
  -9 -11   2    8.22    0.79
  -8 -11   2    0.61    0.49
  -7 -11   2    0.32    0.47
  -7 -11   2   -0.94    0.43
  -6 -11   2   -0.56    0.44
  -6 -11   2   -0.38    0.46
  -5 -11   2    1.55    0.54
  -5 -11   2    1.09    0.52
  -4 -11   2    2.92    0.65
  -4 -11   2    3.71    0.65
  -3 -11   2    4.26    0.74
  -3 -11   2    4.17    0.73
  -2 -11   2    3.89    0.75
  -2 -11   2    3.59    0.73
  -1 -11   2    0.48    0.62
  -1 -11   2    0.77    0.65
 -10 -10   2    1.85    0.53
 -10 -10   2    3.61    0.64
  -9 -10   2    1.66    0.47
  -9 -10   2    1.88    0.57
  -8 -10   2    7.33    0.72
  -8 -10   2    6.67    0.67
  -7 -10   2    1.10    0.46
  -7 -10   2    0.61    0.39
  -6 -10   2    0.14    0.38
  -6 -10   2   -0.17    0.40
  -5 -10   2    7.69    0.75
  -5 -10   2    7.81    0.78
  -4 -10   2    0.12    0.39
  -4 -10   2    0.49    0.44
  -3 -10   2    0.25    0.43
  -3 -10   2    0.01    0.41
  -2 -10   2   -0.48    0.42
  -2 -10   2    0.29    0.44
  -1 -10   2    0.01    0.47
  -1 -10   2    0.51    0.50
   0 -10   2    0.45    0.54
   0 -10   2    0.19    0.55
   1 -10   2    0.53    0.60
   1 -10   2   -0.39    0.57
   1 -10   2   -0.40    0.56
   2 -10   2    0.30    0.66
   2 -10   2    0.92    0.71
   2 -10   2    1.12    0.74
 -11  -9   2    2.04    0.54
 -11  -9   2    1.66    0.59
 -10  -9   2    0.80    0.42
 -10  -9   2    0.17    0.42
  -9  -9   2    2.97    0.50
  -9  -9   2    4.33    0.61
  -8  -9   2    8.67    0.76
  -8  -9   2    7.92    0.70
  -7  -9   2    1.11    0.37
  -7  -9   2    0.94    0.41
  -6  -9   2    0.49    0.35
  -6  -9   2    0.43    0.35
  -5  -9   2    1.72    0.43
  -5  -9   2    1.34    0.41
  -4  -9   2    7.96    0.72
  -4  -9   2    8.44    0.71
  -3  -9   2    6.60    0.66
  -3  -9   2    7.25    0.72
  -2  -9   2   -0.11    0.35
  -2  -9   2    0.39    0.36
  -1  -9   2    0.11    0.38
  -1  -9   2   -0.44    0.36
  -1  -9   2    0.56    0.35
   0  -9   2    0.95    0.47
   0  -9   2    1.03    0.47
   0  -9   2    0.47    0.45
   1  -9   2   -0.20    0.47
   1  -9   2    0.33    0.49
   1  -9   2    0.51    0.50
   2  -9   2    0.22    0.58
   2  -9   2    0.36    0.56
   2  -9   2   -0.51    0.50
   3  -9   2    0.87    0.71
   3  -9   2    0.54    0.65
   3  -9   2    1.24    0.66
 -12  -8   2    2.31    0.66
 -12  -8   2    1.79    0.61
 -11  -8   2    0.01    0.45
 -11  -8   2    0.49    0.48
 -10  -8   2   14.37    1.01
 -10  -8   2   14.31    0.98
  -9  -8   2    1.70    0.44
  -9  -8   2    0.70    0.38
  -8  -8   2    7.65    0.68
  -8  -8   2    5.46    0.57
  -7  -8   2    2.41    0.41
  -7  -8   2    2.81    0.43
  -6  -8   2    0.30    0.26
  -6  -8   2   -0.25    0.28
  -5  -8   2   18.75    0.98
  -5  -8   2   20.25    0.99
  -4  -8   2    1.69    0.38
  -4  -8   2    1.64    0.38
  -3  -8   2    2.86    0.44
  -3  -8   2    2.35    0.41
  -2  -8   2    1.64    0.39
  -2  -8   2    1.10    0.30
  -2  -8   2    0.86    0.34
  -1  -8   2    0.19    0.32
  -1  -8   2    0.35    0.31
  -1  -8   2   -0.23    0.30
   0  -8   2    6.58    0.67
   0  -8   2    7.49    0.72
   0  -8   2    6.84    0.70
   1  -8   2   -0.03    0.38
   1  -8   2    0.28    0.43
   1  -8   2    0.74    0.43
   2  -8   2    5.78    0.76
   2  -8   2    5.49    0.75
   2  -8   2    5.37    0.76
   3  -8   2   -0.41    0.49
   3  -8   2    0.02    0.54
   3  -8   2    0.53    0.52
   4  -8   2    1.53    0.69
   4  -8   2    1.09    0.67
   4  -8   2    0.92    0.62
   5  -8   2    3.02    0.77
   5  -8   2    3.99    0.93
 -12  -7   2   -0.10    0.48
 -12  -7   2    0.65    0.55
 -11  -7   2    1.38    0.52
 -11  -7   2    0.69    0.46
 -10  -7   2    0.61    0.43
 -10  -7   2    0.06    0.36
  -9  -7   2    1.11    0.39
  -9  -7   2    1.14    0.40
  -8  -7   2    5.40    0.56
  -8  -7   2    5.72    0.58
  -7  -7   2    3.57    0.44
  -7  -7   2    3.09    0.42
  -6  -7   2   -0.03    0.23
  -6  -7   2    0.05    0.24
  -5  -7   2    0.02    0.25
  -5  -7   2   -0.07    0.22
  -4  -7   2    3.15    0.40
  -4  -7   2    3.42    0.41
  -3  -7   2   17.59    0.90
  -3  -7   2   17.14    0.87
  -2  -7   2    9.40    0.63
  -2  -7   2    9.64    0.65
  -1  -7   2    2.55    0.40
  -1  -7   2    4.20    0.49
   0  -7   2    5.51    0.55
   0  -7   2    5.53    0.56
   0  -7   2    4.52    0.53
   1  -7   2    3.56    0.52
   1  -7   2    3.73    0.50
   1  -7   2    3.74    0.53
   2  -7   2    2.94    0.55
   2  -7   2    3.66    0.56
   2  -7   2    3.41    0.54
   3  -7   2    5.62    0.71
   3  -7   2    3.85    0.62
   3  -7   2    5.37    0.72
   4  -7   2    6.15    0.84
   4  -7   2    6.66    0.83
   4  -7   2    8.03    0.89
   5  -7   2    0.14    0.56
   5  -7   2   -0.61    0.45
   6  -7   2    4.64    0.87
   6  -7   2    3.42    0.84
 -11  -6   2    1.05    0.48
 -11  -6   2    6.30    2.16
 -10  -6   2    0.91    0.38
 -10  -6   2    0.21    0.36
  -9  -6   2    0.22    0.31
  -9  -6   2   -0.12    0.31
  -8  -6   2    4.80    0.51
  -8  -6   2    4.18    0.49
  -7  -6   2    0.93    0.28
  -7  -6   2    1.17    0.29
  -6  -6   2    0.78    0.25
  -6  -6   2    0.43    0.23
  -5  -6   2    2.92    0.35
  -5  -6   2    2.32    0.33
  -4  -6   2    1.67    0.24
  -4  -6   2    1.56    0.28
  -4  -6   2    1.80    0.30
  -3  -6   2    4.73    0.34
  -3  -6   2    4.76    0.41
  -3  -6   2    4.98    0.43
  -2  -6   2    4.82    0.42
  -2  -6   2    4.66    0.46
  -2  -6   2    4.26    0.42
  -2  -6   2    4.21    0.32
  -1  -6   2    1.01    0.28
  -1  -6   2    0.55    0.24
   0  -6   2    8.05    0.59
   0  -6   2    8.10    0.60
   1  -6   2    3.95    0.46
   1  -6   2    3.26    0.44
   1  -6   2    3.69    0.47
   2  -6   2    2.68    0.48
   2  -6   2    3.12    0.46
   2  -6   2    3.29    0.49
   3  -6   2    0.22    0.32
   3  -6   2    0.16    0.37
   3  -6   2    0.30    0.36
   4  -6   2    4.77    0.68
   4  -6   2    4.52    0.64
   4  -6   2    5.06    0.70
   5  -6   2    7.60    0.85
   5  -6   2    8.26    0.88
   5  -6   2    8.72    0.93
   6  -6   2   21.90    1.46
   6  -6   2   24.18    1.54
   7  -6   2    0.84    0.64
   7  -6   2    2.14    0.74
 -12  -5   2    6.95    0.84
 -12  -5   2    8.57    0.91
 -11  -5   2    1.02    1.67
 -11  -5   2    0.28    0.44
 -11  -5   2    0.34    0.42
 -10  -5   2   -0.19    0.32
 -10  -5   2    1.36    1.27
 -10  -5   2    0.48    0.37
  -9  -5   2    7.21    0.65
  -9  -5   2    5.18    1.51
  -9  -5   2    7.69    0.68
  -8  -5   2   12.13    1.90
  -8  -5   2   10.22    0.70
  -8  -5   2   11.66    0.72
  -7  -5   2    1.44    0.29
  -7  -5   2    1.74    0.32
  -6  -5   2    1.29    0.28
  -6  -5   2    1.55    0.28
  -5  -5   2    0.28    0.13
  -5  -5   2    0.25    0.19
  -5  -5   2    0.17    0.18
  -4  -5   2    9.95    0.55
  -4  -5   2    9.50    0.54
  -4  -5   2   10.26    0.52
  -3  -5   2   -0.11    0.16
  -3  -5   2    0.16    0.17
  -3  -5   2    0.13    0.11
  -2  -5   2    4.47    0.31
  -2  -5   2    4.44    0.36
  -2  -5   2    4.04    0.35
  -2  -5   2    3.85    0.29
   1   5  -2    1.07    0.16
   1   5  -2    0.97    0.13
  -1  -5   2    1.08    0.18
  -1  -5   2    0.84    0.23
  -1  -5   2    0.88    0.23
  -1  -5   2    0.67    0.13
   0   5  -2    9.39    0.47
   0   5  -2    9.66    0.46
   0  -5   2   10.08    0.59
   0  -5   2    9.24    0.56
   0  -5   2    7.21    0.46
  -1   5  -2    1.03    0.17
  -1   5  -2    0.83    0.18
   1  -5   2    0.55    0.26
   1  -5   2    0.61    0.24
  -2   5  -2   16.05    0.79
  -2   5  -2   17.17    0.78
   2  -5   2   17.47    0.89
   2  -5   2   17.30    0.90
   2  -5   2   15.71    0.89
  -3   5  -2    0.88    0.21
   3  -5   2    0.59    0.33
   3  -5   2    1.47    0.38
   3  -5   2    0.97    0.32
   4  -5   2    0.75    0.37
   4  -5   2    0.57    0.39
   4  -5   2    0.56    0.32
   5  -5   2   22.97    1.29
   5  -5   2   22.93    1.29
   5  -5   2   20.81    1.22
   6  -5   2    2.24    0.57
   6  -5   2    2.41    0.58
   7  -5   2    2.14    0.65
   7  -5   2    1.93    0.66
   8  -5   2   -0.41    0.47
   8  -5   2    0.99    0.65
 -12  -4   2    8.64    0.92
 -12  -4   2    9.49    0.99
 -12  -4   2   15.24    3.39
 -11  -4   2    4.15    0.64
 -11  -4   2    3.99    0.67
 -11  -4   2    4.10    2.02
 -10  -4   2    0.88    1.10
 -10  -4   2    0.46    0.39
 -10  -4   2    0.50    0.37
  -8  -4   2    7.76    0.61
  -8  -4   2    7.43    0.61
  -7  -4   2    4.71    0.46
  -7  -4   2    2.55    0.80
  -7  -4   2    4.27    0.43
   6   4  -2   14.58    0.62
  -6  -4   2   12.62    2.09
  -6  -4   2   13.69    0.70
  -6  -4   2   13.03    0.70
   5   4  -2    2.09    0.19
  -5  -4   2    1.19    0.19
  -5  -4   2    1.10    0.94
  -5  -4   2    2.16    0.28
  -5  -4   2    1.85    0.27
   4   4  -2    0.16    0.08
   4   4  -2    0.24    0.07
  -4  -4   2    0.21    0.16
  -4  -4   2    0.27    0.13
  -4  -4   2    0.14    0.15
   3   4  -2    3.79    0.21
   3   4  -2    2.99    0.22
  -3  -4   2    3.23    0.30
  -3  -4   2    3.01    0.29
  -3  -4   2    3.22    0.27
   2   4  -2    7.33    0.37
   2   4  -2    7.77    0.35
  -2  -4   2    6.78    0.42
  -2  -4   2    7.48    0.40
  -2  -4   2    7.59    0.43
   1   4  -2    0.69    0.13
   1   4  -2    0.81    0.13
  -1  -4   2    0.66    0.17
  -1  -4   2    0.83    0.15
  -1  -4   2    0.53    0.18
   0   4  -2    8.07    0.42
   0   4  -2    8.10    0.40
   0  -4   2    7.37    0.46
   0  -4   2    6.76    0.41
   0  -4   2    7.21    0.47
  -1   4  -2   28.23    1.14
  -1   4  -2   28.51    1.16
   1  -4   2   28.83    1.22
   1  -4   2   29.93    1.19
   1  -4   2   30.23    1.23
   1  -4   2   30.46    1.18
  -2   4  -2    0.88    0.19
  -2   4  -2    0.81    0.18
   2  -4   2    0.76    0.25
   2  -4   2    1.55    0.21
   2  -4   2    0.61    0.26
  -3   4  -2   -0.17    0.12
  -3   4  -2   -0.08    0.13
   3  -4   2   -0.02    0.23
   3  -4   2    0.01    0.23
   3  -4   2   -0.26    0.22
  -4   4  -2    2.12    0.34
  -4   4  -2    2.78    0.33
   4  -4   2    2.56    0.44
   4  -4   2    1.84    0.36
   4  -4   2    2.51    0.41
  -5   4  -2   30.10    1.40
  -5   4  -2   33.41    1.62
   5  -4   2   30.64    1.49
   5  -4   2   29.84    1.49
   5  -4   2   32.32    1.45
   6  -4   2   12.02    0.91
   6  -4   2   12.87    0.98
   7  -4   2    0.87    0.46
   7  -4   2   -0.05    0.40
   8  -4   2    2.13    0.58
   8  -4   2    1.91    0.57
   9  -4   2   -0.19    0.49
   9  -4   2   -0.40    0.58
 -13  -3   2    8.75    1.06
 -13  -3   2    7.60    0.97
 -12  -3   2    9.05    3.18
 -12  -3   2    0.86    0.56
 -11  -3   2    0.30    0.44
 -11  -3   2   -1.85    2.28
 -11  -3   2    0.25    0.46
 -10  -3   2    4.29    1.91
 -10  -3   2    3.02    0.55
 -10  -3   2    2.31    0.49
  -9  -3   2    1.45    1.38
  -9  -3   2    0.58    0.36
  -9  -3   2    0.76    0.36
   7   3  -2    0.70    0.18
  -7  -3   2    0.99    0.29
  -7  -3   2    0.38    0.71
  -7  -3   2    1.02    0.28
   6   3  -2    0.10    0.12
  -6  -3   2   -0.24    0.55
  -6  -3   2    0.01    0.19
  -6  -3   2   -0.07    0.17
  -6  -3   2    0.43    0.14
   5   3  -2    4.04    0.30
  -5  -3   2    4.29    0.37
   4   3  -2   15.72    0.64
  -4  -3   2   12.13    1.54
  -4  -3   2   15.32    0.69
  -4  -3   2   15.93    0.68
   3   3  -2    1.16    0.16
  -3  -3   2    0.78    0.18
  -3  -3   2    0.51    0.15
   2   3  -2   11.04    0.48
   2   3  -2   11.33    0.47
  -2  -3   2   10.24    0.50
  -2  -3   2   10.41    0.51
   1   3  -2   11.53    0.49
   1   3  -2   11.99    0.51
  -1  -3   2   10.98    0.54
  -1  -3   2   11.63    0.54
   0   3  -2   18.96    0.73
   0   3  -2   18.09    0.71
   0  -3   2   16.83    0.76
   0  -3   2   15.17    0.72
   0  -3   2   17.79    0.76
   0  -3   2   18.91    0.75
  -1   3  -2    4.82    0.31
  -1   3  -2    4.96    0.33
   1  -3   2    4.41    0.36
   1  -3   2    5.20    0.33
   1  -3   2    5.00    0.32
   1  -3   2    4.85    0.38
  -2   3  -2   36.74    1.39
  -2   3  -2   35.00    1.40
   2  -3   2   35.66    1.44
   2  -3   2   37.72    1.42
   2  -3   2   36.77    1.45
  -3   3  -2    9.09    0.51
  -3   3  -2    8.49    0.52
   3  -3   2    8.61    0.58
   3  -3   2    8.82    0.58
  -4   3  -2    8.08    0.51
  -4   3  -2    7.29    0.52
   4  -3   2    7.68    0.60
   4  -3   2    8.19    0.58
   4  -3   2    8.33    0.61
  -5   3  -2   51.90    2.03
  -5   3  -2   47.92    2.04
   5  -3   2   54.02    2.08
   5  -3   2   51.73    2.12
   5  -3   2   53.32    2.12
  -6   3  -2    6.91    0.59
  -6   3  -2    5.89    0.54
   6  -3   2    6.48    0.67
   6  -3   2    7.96    0.80
  -7   3  -2   27.47    1.60
  -7   3  -2   23.73    1.26
   7  -3   2   23.44    1.29
   7  -3   2   25.77    1.39
   8  -3   2    0.40    0.42
   8  -3   2    1.05    0.45
   9  -3   2   -0.11    0.44
   9  -3   2    0.07    0.52
  10  -3   2    5.43    0.86
 -12  -2   2   15.38    1.21
 -12  -2   2   17.85    4.02
 -12  -2   2   15.87    1.33
 -11  -2   2   -0.11    0.44
 -11  -2   2    0.78    0.48
 -11  -2   2    5.79    2.55
 -10  -2   2   -0.35    1.55
 -10  -2   2   -0.04    0.41
 -10  -2   2    1.09    0.45
  -9  -2   2    2.26    0.45
  -9  -2   2    2.19    1.28
  -9  -2   2    2.31    0.45
   8   2  -2    5.44    0.45
  -8  -2   2    4.46    0.50
  -8  -2   2    4.84    1.18
  -8  -2   2    3.51    0.48
   7   2  -2    0.18    0.14
  -7  -2   2    1.65    0.80
  -7  -2   2    0.73    0.27
  -7  -2   2    0.77    0.27
   5   2  -2   20.51    0.91
  -5  -2   2   22.29    0.94
  -5  -2   2   20.51    0.93
  -5  -2   2   26.41    1.92
  -5  -2   2   20.24    0.93
   3   2  -2   28.15    1.08
  -3  -2   2   28.16    1.10
  -3  -2   2   29.16    1.77
  -3  -2   2   29.48    1.10
   2   2  -2   15.96    0.62
  -2  -2   2   15.23    0.63
  -2  -2   2   13.75    1.36
  -2  -2   2   15.90    0.65
   1   2  -2    0.44    0.11
   1   2  -2    0.42    0.10
  -1  -2   2    0.43    0.14
  -1  -2   2    0.32    0.12
   0   2  -2   21.80    0.82
   0   2  -2   20.80    0.82
   0  -2   2   21.06    0.82
   0  -2   2   22.38    0.85
   0  -2   2   21.33    0.84
   0  -2   2   20.30    0.84
  -1   2  -2   52.85    1.92
  -1   2  -2   50.80    1.90
   1  -2   2   55.77    1.95
   1  -2   2   53.86    1.92
   1  -2   2   57.84    1.95
   1  -2   2   52.37    1.94
  -2   2  -2   75.53    2.71
  -2   2  -2   77.59    2.71
   2  -2   2   77.02    2.75
   2  -2   2   79.13    2.72
   2  -2   2   75.43    2.73
  -3   2  -2    1.79    0.26
  -3   2  -2    1.52    0.22
   3  -2   2    1.60    0.28
   3  -2   2    2.07    0.32
  -4   2  -2    5.18    0.39
  -4   2  -2    4.11    0.38
   4  -2   2    5.27    0.46
   4  -2   2    5.08    0.48
   4  -2   2    5.26    0.43
  -5   2  -2   44.00    1.74
  -5   2  -2   41.87    1.70
   5  -2   2   42.25    1.77
   5  -2   2   42.75    1.76
   5  -2   2   43.28    1.72
  -6   2  -2   32.54    1.45
  -6   2  -2   34.34    1.50
   6  -2   2   34.18    1.55
   6  -2   2   35.39    1.49
  -7   2  -2    0.18    0.23
  -7   2  -2    0.63    0.27
   7  -2   2    0.23    0.35
   7  -2   2    0.16    0.27
  -8   2  -2    0.20    0.31
  -8   2  -2    0.27    0.29
   8  -2   2    0.57    0.38
   8  -2   2    0.52    0.40
  -9   2  -2    0.98    0.40
   9  -2   2    0.85    0.43
   9  -2   2    1.25    0.50
  10  -2   2   -0.13    0.48
 -11   2  -2   -2.73    1.88
  11  -2   2    3.17    0.78
 -12  -1   2    7.57    0.97
 -12  -1   2    7.22    3.48
 -12  -1   2    9.40    1.11
 -11  -1   2    0.29    0.47
 -11  -1   2   -0.61    0.41
 -11  -1   2    1.13    2.67
 -10  -1   2    0.44    1.89
 -10  -1   2    1.01    0.46
 -10  -1   2    0.62    0.45
  -9  -1   2    0.60    0.34
  -9  -1   2    0.43    0.35
  -9  -1   2    1.87    1.22
   8   1  -2   11.53    0.71
  -8  -1   2    9.32    1.47
  -8  -1   2   11.05    0.74
  -8  -1   2   11.37    0.78
   6   1  -2   10.13    0.60
  -6  -1   2    9.74    0.62
  -6  -1   2   10.85    0.63
   5   1  -2    2.59    0.32
  -5  -1   2    2.41    0.29
  -5  -1   2    2.63    0.30
   4   1  -2    9.14    0.49
  -4  -1   2   10.60    0.52
  -4  -1   2    9.01    0.51
  -4  -1   2    9.42    0.50
   3   1  -2    4.00    0.30
  -3  -1   2    3.52    0.29
  -3  -1   2    4.27    0.30
  -3  -1   2    4.57    0.31
   2   1  -2    6.32    0.34
  -2  -1   2    6.62    0.35
  -2  -1   2    6.15    0.35
  -2  -1   2    6.67    0.35
   1   1  -2   48.60    1.68
  -1  -1   2   46.50    1.68
  -1  -1   2   48.22    1.90
  -1  -1   2   46.12    1.68
  -1  -1   2   49.85    1.68
   0   1  -2  327.70   11.21
   0   1  -2  332.08   11.28
   0   1  -2  359.04   11.25
   0  -1   2  347.14   11.22
   0  -1   2  337.31   11.22
   0  -1   2  328.61   11.20
   0  -1   2  315.25   11.21
   0  -1   2  349.93   11.22
  -1   1  -2    0.66    0.12
  -1   1  -2    0.73    0.13
   1  -1   2    0.59    0.16
   1  -1   2    0.50    0.14
   1  -1   2    0.69    0.13
   1  -1   2    0.65    0.14
  -2   1  -2    7.49    0.38
  -2   1  -2    6.95    0.39
   2  -1   2    7.67    0.38
   2  -1   2    6.60    0.41
   2  -1   2    7.08    0.41
  -3   1  -2    7.08    0.42
  -3   1  -2    7.78    0.44
   3  -1   2    8.06    0.47
   3  -1   2    8.17    0.47
  -4   1  -2    1.11    0.21
  -4   1  -2    0.91    0.20
   4  -1   2    0.85    0.22
   4  -1   2    0.62    0.18
  -5   1  -2   41.39    1.64
  -5   1  -2   42.70    1.63
   5  -1   2   38.31    1.61
   5  -1   2   43.28    1.68
   5  -1   2   40.62    1.66
  -6   1  -2   18.94    0.92
  -6   1  -2   18.96    0.95
   6  -1   2   18.79    0.98
   6  -1   2   17.90    0.92
  -7   1  -2   16.15    0.90
  -7   1  -2   13.25    0.81
   7  -1   2   14.51    0.85
   7  -1   2   14.54    0.90
  -8   1  -2    2.89    0.48
  -8   1  -2    2.20    0.44
   8  -1   2    2.14    0.44
   8  -1   2    1.56    0.40
  -9   1  -2   -0.02    0.32
  -9   1  -2   -0.25    0.34
   9  -1   2    0.06    0.34
   9  -1   2    0.54    0.40
 -10   1  -2    8.43    0.79
 -10   1  -2    5.12    2.34
 -10   1  -2    7.26    0.88
  10  -1   2    6.46    0.79
 -11   1  -2    4.60    2.22
 -11   1  -2    7.06    0.96
  11  -1   2    6.54    0.87
 -12   0   2   16.19    1.39
 -12   0   2   16.60    4.01
 -11   0   2    1.10    0.62
 -11   0   2    3.78    2.75
 -11   0   2    1.33    0.53
 -10   0   2    4.18    2.26
 -10   0   2    1.05    0.48
 -10   0   2    0.67    0.46
   9   0  -2    1.31    0.42
  -9   0   2    0.70    0.38
  -9   0   2    0.57    0.40
   8   0  -2    8.84    0.71
  -8   0   2   11.04    0.81
  -8   0   2    8.94    0.72
   7   0  -2    0.82    0.29
  -7   0   2    0.14    0.30
  -7   0   2    0.30    0.25
   6   0  -2    0.48    0.22
  -6   0   2    0.08    0.21
  -6   0   2    0.69    0.23
   5   0  -2   24.68    1.08
  -5   0   2   24.94    1.07
  -5   0   2   25.18    1.09
   4   0  -2   11.84    0.60
  -4   0   2   10.66    0.57
  -4   0   2   11.55    0.58
   3   0  -2   19.76    0.82
  -3   0   2   19.73    0.81
  -3   0   2   19.92    0.82
   2   0  -2    3.23    0.26
   2   0  -2    3.37    0.24
  -2   0   2    3.02    0.25
  -2   0   2    3.39    0.26
  -2   0   2    3.47    0.25
   1   0  -2  281.78    9.57
   1   0  -2  300.20    9.58
   1   0  -2  271.88    9.57
  -1   0   2  292.35    9.58
  -1   0   2  289.29    9.57
  -1   0   2  289.13    9.58
   0   0  -2   75.39    2.55
   0   0  -2   75.17    2.55
   0   0  -2   75.89    2.55
   0   0   2   74.53    2.55
   0   0   2   74.83    2.55
   0   0   2   73.74    2.55
  -1   0  -2  138.98    4.77
  -1   0  -2  144.15    4.78
  -1   0  -2  143.28    4.78
  -1   0  -2  143.51    4.77
   1   0   2  142.70    4.77
   1   0   2  141.60    4.76
   1   0   2  139.61    4.78
   1   0   2  141.80    4.78
  -2   0  -2    0.64    0.12
  -2   0  -2    0.76    0.13
  -2   0  -2    0.35    0.12
  -2   0  -2    1.02    0.17
   2   0   2    0.82    0.16
   2   0   2    0.62    0.12
   2   0   2    0.68    0.14
  -3   0  -2    5.50    0.32
  -3   0  -2    4.97    0.33
  -3   0  -2    4.30    0.33
   3   0   2    5.56    0.35
   3   0   2    4.24    0.34
  -4   0  -2   23.98    1.02
  -4   0  -2   24.51    1.00
   4   0   2   25.50    1.04
   4   0   2   25.52    1.03
  -5   0  -2    6.65    0.42
  -5   0  -2    5.17    0.42
   5   0   2    5.69    0.45
   5   0   2    5.92    0.42
  -6   0  -2   10.67    0.62
  -6   0  -2   10.26    0.64
   6   0   2   11.33    0.65
   6   0   2   10.61    0.67
  -7   0  -2    3.53    0.44
  -7   0  -2    3.06    0.47
   7   0   2    2.90    0.46
   7   0   2    1.76    0.35
  -8   0  -2    0.05    0.27
  -8   0  -2    0.09    0.25
   8   0   2   -0.13    0.27
   8   0   2    0.01    0.22
  -9   0  -2    0.40    0.33
  -9   0  -2    0.09    1.36
  -9   0  -2    0.70    0.40
   9   0   2   -0.06    0.27
   9   0   2    0.27    0.35
 -10   0  -2    2.20    0.53
 -10   0  -2    2.49    0.55
 -10   0  -2    0.01    1.78
  10   0   2    1.45    0.48
 -11   0  -2    5.04    0.81
 -11   0  -2    8.12    2.60
 -11   0  -2    4.34    0.74
  11   0   2    4.23    0.71
 -12   0  -2   -2.15    2.20
 -12   0  -2   -0.03    0.59
 -11   1   2    0.47    0.58
 -11   1   2   -0.84    2.99
 -10   1   2   -0.21    0.44
 -10   1   2   -0.09    0.41
   9  -1  -2    1.21    0.42
  -9   1   2    1.07    0.40
  -9   1   2    1.45    0.47
   8  -1  -2    0.17    0.28
  -8   1   2    0.44    0.30
  -8   1   2    0.23    0.33
   7  -1  -2    0.14    0.26
  -7   1   2    0.13    0.25
  -7   1   2   -0.41    0.24
   6  -1  -2    0.41    0.23
  -6   1   2    0.02    0.20
  -6   1   2    0.36    0.26
   5  -1  -2   22.68    1.04
  -5   1   2   23.29    1.02
  -5   1   2   22.86    1.04
   4  -1  -2    1.33    0.27
  -4   1   2    0.78    0.24
  -4   1   2    1.00    0.23
   3  -1  -2    8.49    0.48
  -3   1   2    8.86    0.48
  -3   1   2    8.96    0.47
   2  -1  -2    0.21    0.14
   2  -1  -2    0.04    0.10
  -2   1   2   -0.10    0.10
  -2   1   2    0.30    0.14
   1  -1  -2   37.92    1.29
   1  -1  -2   34.31    1.29
   1  -1  -2   37.45    1.30
  -1   1   2   34.89    1.29
  -1   1   2   36.23    1.30
   0  -1  -2  423.18   14.51
   0  -1  -2  446.20   14.39
   0  -1  -2  435.18   14.49
   0   1   2  429.51   14.47
   0   1   2  436.42   14.43
   0   1   2  423.93   14.43
  -1  -1  -2  134.93    4.93
  -1  -1  -2  149.40    4.93
  -1  -1  -2  151.90    4.93
   1   1   2  149.19    4.92
   1   1   2  149.64    4.92
   1   1   2  149.54    4.93
  -2  -1  -2  232.20    7.67
  -2  -1  -2  245.44    7.68
  -2  -1  -2  228.58    7.66
  -2  -1  -2  225.48    7.66
  -2  -1  -2  222.29    7.86
   2   1   2  239.01    7.66
   2   1   2  227.60    7.67
   2   1   2  223.56    7.80
   2   1   2  224.59    7.66
  -3  -1  -2  125.23    4.68
  -3  -1  -2  133.36    4.41
  -3  -1  -2  134.17    4.40
  -3  -1  -2  129.63    4.40
  -3  -1  -2  127.61    4.38
   3   1   2  129.12    4.39
   3   1   2  127.07    4.40
  -4  -1  -2   52.35    1.82
  -4  -1  -2   46.86    1.79
  -4  -1  -2   51.01    1.79
  -4  -1  -2   50.72    1.81
   4   1   2   49.27    1.80
   4   1   2   45.76    1.79
  -5  -1  -2    0.87    0.20
  -5  -1  -2    0.83    0.18
  -5  -1  -2    0.95    0.20
  -5  -1  -2    1.73    0.58
   5   1   2    1.40    0.25
   5   1   2    1.04    0.20
  -6  -1  -2    1.20    0.25
  -7  -1  -2   12.39    0.72
  -7  -1  -2   12.92    0.76
   7   1   2   12.87    0.69
   7   1   2   12.64    0.74
  -9  -1  -2    2.33    0.46
  -9  -1  -2    2.82    0.48
  -9  -1  -2    3.14    1.37
   9   1   2    2.42    0.43
   9   1   2    2.53    0.46
 -10  -1  -2    0.14    0.34
 -10  -1  -2   -0.27    0.36
 -10  -1  -2   -0.53    1.56
  10   1   2    0.64    0.39
 -11  -1  -2    3.27    0.63
 -11  -1  -2    2.51    0.64
 -11  -1  -2   -0.54    2.21
  11   1   2    3.16    0.60
 -10   2   2   -0.32    0.43
   9  -2  -2    1.32    0.45
  -9   2   2    1.37    0.44
  -9   2   2    2.45    0.59
   8  -2  -2    5.55    0.71
  -8   2   2    3.16    0.50
  -8   2   2    3.78    0.57
   7  -2  -2    0.92    0.33
  -7   2   2    0.78    0.35
  -7   2   2    0.91    0.32
   6  -2  -2   19.17    1.03
  -6   2   2   19.15    1.00
  -6   2   2   19.17    0.96
   5  -2  -2    5.27    0.54
  -5   2   2    3.77    0.39
  -5   2   2    5.15    0.46
   4  -2  -2   14.00    0.72
  -4   2   2   13.11    0.68
  -4   2   2   12.78    0.66
   3  -2  -2   43.27    1.66
  -3   2   2   43.65    1.65
  -3   2   2   44.72    1.64
   2  -2  -2    7.18    0.38
   2  -2  -2    7.44    0.42
   2  -2  -2    6.98    0.40
  -2   2   2    6.63    0.39
  -2   2   2    7.12    0.39
   1  -2  -2    5.41    0.29
   1  -2  -2    5.19    0.31
   1  -2  -2    4.72    0.30
  -1   2   2    4.73    0.29
  -1   2   2    4.96    0.28
  -1  -2  -2   53.07    1.70
  -1  -2  -2   50.15    1.70
  -1  -2  -2   48.40    1.70
   1   2   2   45.34    1.69
   1   2   2   53.35    1.70
  -2  -2  -2   53.32    1.91
  -2  -2  -2   64.80    1.92
  -2  -2  -2   53.32    1.92
   2   2   2   51.68    1.90
   2   2   2   57.46    1.91
  -3  -2  -2   93.97    3.19
  -3  -2  -2   96.38    3.20
  -3  -2  -2   91.93    3.73
   3   2   2   94.18    3.20
  -4  -2  -2    8.24    0.43
  -4  -2  -2    8.20    0.41
  -4  -2  -2    8.57    1.18
   4   2   2    8.52    0.43
  -6  -2  -2   49.27    2.83
  -6  -2  -2   50.41    1.86
  -6  -2  -2   47.37    1.85
  -6  -2  -2   51.72    1.87
  -6  -2  -2   47.02    1.84
   6   2   2   47.80    1.79
   6   2   2   48.93    1.85
  -7  -2  -2    2.09    0.33
  -7  -2  -2    1.44    0.31
  -7  -2  -2    2.01    0.79
   7   2   2    1.73    0.30
   7   2   2    1.64    0.27
  -8  -2  -2    3.85    1.10
  -8  -2  -2    4.32    0.49
  -8  -2  -2    3.73    0.46
   8   2   2    3.03    0.39
   8   2   2    3.55    0.41
  -9  -2  -2    0.92    0.36
  -9  -2  -2    1.78    1.29
  -9  -2  -2    1.16    0.40
   9   2   2    0.88    0.29
 -10  -2  -2   -0.97    1.68
 -10  -2  -2   -0.07    0.36
 -10  -2  -2    0.07    0.34
  10   2   2    0.07    0.30
 -12  -2  -2    4.61    0.77
 -12  -2  -2    2.48    2.98
 -12  -2  -2    3.22    0.73
 -13  -2  -2    7.01    0.99
 -13  -2  -2    4.52    0.85
   9  -3  -2    6.91    0.92
   8  -3  -2    1.29    0.46
  -8   3   2    0.90    0.41
   7  -3  -2    0.75    0.36
  -7   3   2    0.95    0.35
  -7   3   2    0.91    0.32
   6  -3  -2    1.51    0.39
  -6   3   2    2.26    0.38
  -6   3   2    2.35    0.42
   5  -3  -2   39.54    1.67
  -5   3   2   38.95    1.62
  -5   3   2   39.70    1.61
   4  -3  -2   12.97    0.74
  -4   3   2   13.05    0.69
  -4   3   2   12.69    0.67
   3  -3  -2   14.18    0.65
   3  -3  -2   12.63    0.65
   3  -3  -2   12.58    0.68
  -3   3   2   13.11    0.63
  -3   3   2   12.67    0.64
   2  -3  -2   16.54    0.72
   2  -3  -2   16.94    0.71
   2  -3  -2   15.66    0.73
  -2   3   2   15.93    0.71
  -2   3   2   16.13    0.70
   1  -3  -2    0.60    0.16
   1  -3  -2    0.48    0.12
   1  -3  -2    0.57    0.14
  -1   3   2    0.47    0.13
  -1   3   2    0.50    0.13
   0  -3  -2   48.96    1.65
   0  -3  -2   45.20    1.66
   0  -3  -2   48.16    1.66
   0   3   2   46.96    1.64
   0   3   2   47.43    1.63
  -1  -3  -2   46.16    1.56
  -1  -3  -2   44.90    1.56
  -1  -3  -2   46.26    1.56
  -2  -3  -2   20.92    0.72
  -3  -3  -2   35.64    1.24
  -3  -3  -2   34.10    1.23
  -3  -3  -2   35.24    1.22
  -3  -3  -2   35.94    1.23
  -4  -3  -2    9.18    0.47
  -4  -3  -2   10.88    0.49
  -4  -3  -2   12.04    0.48
  -4  -3  -2   11.86    0.50
   4   3   2   12.17    0.48
  -5  -3  -2   52.27    2.71
  -5  -3  -2   53.05    1.94
  -5  -3  -2   55.36    1.93
   5   3   2   54.16    1.92
   5   3   2   55.23    1.89
  -6  -3  -2   31.93    2.10
  -6  -3  -2   31.95    1.27
  -6  -3  -2   32.19    1.29
  -6  -3  -2   34.24    1.29
   6   3   2   32.24    1.21
   6   3   2   32.02    1.26
  -7  -3  -2   36.52    1.46
  -7  -3  -2   33.98    2.51
  -7  -3  -2   39.38    1.48
  -7  -3  -2   35.80    1.47
  -7  -3  -2   38.56    1.51
   7   3   2   36.27    1.45
   7   3   2   35.78    1.39
  -8  -3  -2    0.61    0.28
  -8  -3  -2    0.96    0.74
  -8  -3  -2    0.44    0.26
   8   3   2    1.09    0.24
   8   3   2    0.71    0.23
  -9  -3  -2    8.00    0.62
  -9  -3  -2    5.78    1.21
  -9  -3  -2    7.45    0.65
   9   3   2    6.77    0.52
 -10  -3  -2    1.77    0.43
 -10  -3  -2    1.65    1.38
 -10  -3  -2    1.59    0.44
  10   3   2    2.01    0.37
 -11  -3  -2    1.88    2.02
 -11  -3  -2    2.09    0.53
 -11  -3  -2    2.82    0.62
 -12  -3  -2   -0.01    0.49
 -12  -3  -2   -0.25    0.49
 -12  -3  -2   -1.48    2.55
 -13  -3  -2    0.42    0.62
 -13  -3  -2    5.37    2.92
 -13  -3  -2    0.16    0.58
   9  -4  -2    0.41    0.53
   8  -4  -2    1.87    0.61
   7  -4  -2   10.37    0.91
   6  -4  -2    7.08    0.71
  -6   4   2    7.23    0.63
  -6   4   2    6.69    0.55
   5  -4  -2    4.70    0.59
  -5   4   2    4.60    0.49
  -5   4   2    4.22    0.45
   4  -4  -2    6.39    0.56
   4  -4  -2    6.27    0.52
  -4   4   2    6.87    0.49
  -4   4   2    6.01    0.46
   3  -4  -2   25.09    1.09
   3  -4  -2   23.84    1.11
   3  -4  -2   26.92    1.08
  -3   4   2   25.27    1.06
  -3   4   2   25.53    1.08
   2  -4  -2    5.12    0.33
   2  -4  -2    4.89    0.41
   2  -4  -2    5.19    0.39
   2  -4  -2    4.92    0.34
  -2   4   2    4.84    0.33
  -2   4   2    4.89    0.35
   1  -4  -2    3.06    0.30
   1  -4  -2    2.12    0.22
   1  -4  -2    3.52    0.31
  -1   4   2    3.18    0.25
  -1   4   2    3.14    0.22
   0  -4  -2    0.58    0.13
   0  -4  -2    0.53    0.12
   0  -4  -2    0.45    0.15
   0   4   2    0.62    0.12
   0   4   2    0.54    0.10
  -1  -4  -2    2.01    0.18
  -1  -4  -2    2.56    0.17
   1   4   2    2.55    0.18
   2   4   2   73.90    2.49
  -4  -4  -2   49.82    1.75
  -4  -4  -2   51.49    1.74
  -5  -4  -2   36.30    1.34
  -5  -4  -2   36.82    1.35
  -5  -4  -2   38.09    1.36
   5   4   2   37.01    1.28
  -6  -4  -2    6.33    0.38
  -6  -4  -2    6.06    0.39
  -6  -4  -2    6.04    0.38
  -6  -4  -2    5.36    1.04
  -6  -4  -2    6.35    0.38
   6   4   2    6.18    0.31
   6   4   2    6.11    0.34
  -7  -4  -2   46.11    1.74
  -7  -4  -2   41.78    2.84
  -7  -4  -2   46.49    1.73
   7   4   2   44.88    1.64
   7   4   2   47.95    1.70
  -8  -4  -2  104.79    5.00
  -8  -4  -2   97.82    3.54
  -8  -4  -2   94.99    3.54
   8   4   2   99.71    3.55
   8   4   2   96.53    3.43
  -9  -4  -2    8.09    0.60
  -9  -4  -2    7.95    0.63
  -9  -4  -2    4.88    0.95
 -10  -4  -2   14.40    0.91
 -10  -4  -2   12.16    2.46
 -10  -4  -2   14.36    0.90
 -11  -4  -2    2.19    1.35
 -11  -4  -2    2.04    0.52
 -11  -4  -2    2.14    0.51
 -12  -4  -2    1.18    0.54
 -12  -4  -2    2.27    0.61
 -12  -4  -2    4.92    2.09
   9  -5  -2   -0.83    0.42
   8  -5  -2   -0.19    0.55
   7  -5  -2   -0.11    0.38
   6  -5  -2    5.42    0.69
   5  -5  -2    7.92    0.82
   4  -5  -2    9.00    0.69
   4  -5  -2    9.78    0.69
  -4   5   2    8.76    0.55
  -4   5   2    8.27    0.56
   3  -5  -2    0.68    0.26
   3  -5  -2    0.59    0.25
  -3   5   2    0.63    0.18
  -3   5   2    0.72    0.20
   2  -5  -2   13.70    0.70
   2  -5  -2   13.41    0.65
   2  -5  -2   14.45    0.67
   2  -5  -2   13.55    0.73
  -2   5   2   12.53    0.62
  -2   5   2   13.29    0.64
   1  -5  -2    9.33    0.55
   1  -5  -2    9.64    0.52
  -1   5   2   10.44    0.47
  -1   5   2   10.50    0.50
   0  -5  -2    0.34    0.13
   0  -5  -2    0.39    0.16
   0  -5  -2    0.41    0.13
   0  -5  -2    0.26    0.15
   0   5   2    0.30    0.09
   0   5   2    0.33    0.09
  -1  -5  -2   68.77    2.40
  -1  -5  -2   69.23    2.40
  -1  -5  -2   71.08    2.40
  -1  -5  -2   69.82    2.41
  -2  -5  -2   29.95    1.02
  -2  -5  -2   28.76    1.02
  -5  -5  -2    0.92    0.15
  -5  -5  -2    0.84    0.13
  -6  -5  -2   14.81    0.64
  -6  -5  -2   14.59    0.65
  -6  -5  -2   15.10    0.65
  -7  -5  -2    9.60    0.50
  -7  -5  -2    8.88    0.51
  -7  -5  -2    9.23    0.53
  -8  -5  -2   -0.11    0.96
  -8  -5  -2    0.81    0.24
  -8  -5  -2    1.10    0.26
  -9  -5  -2   18.61    3.47
  -9  -5  -2   17.24    0.92
  -9  -5  -2   17.43    0.91
 -10  -5  -2    2.76    0.47
 -10  -5  -2    3.67    0.49
 -10  -5  -2    1.16    1.01
 -11  -5  -2    2.36    0.52
 -11  -5  -2    3.24    0.54
 -11  -5  -2    5.65    1.72
 -12  -5  -2    2.57    0.59
 -12  -5  -2    3.55    0.63
   8  -6  -2    0.24    0.65
   7  -6  -2   -0.27    0.42
   6  -6  -2    0.13    0.49
   5  -6  -2    3.54    0.54
   4  -6  -2    1.35    0.40
   4  -6  -2    2.01    0.47
   3  -6  -2   56.56    2.27
   3  -6  -2   57.77    2.23
   2  -6  -2   16.02    0.88
   2  -6  -2   17.30    0.87
  -2   6   2   18.61    0.77
  -2   6   2   17.14    0.79
   1  -6  -2   26.29    1.06
   1  -6  -2   23.46    1.06
  -1   6   2   23.70    0.95
  -1   6   2   24.24    0.98
   0  -6  -2    5.59    0.39
   0  -6  -2    6.06    0.41
   0  -6  -2    5.96    0.42
   0  -6  -2    6.19    0.36
   0  -6  -2    5.37    0.35
  -1  -6  -2    4.90    0.34
  -1  -6  -2    5.54    0.32
  -1  -6  -2    5.23    0.34
  -1  -6  -2    5.00    0.30
  -1  -6  -2    4.93    0.33
  -2  -6  -2   84.28    2.84
  -2  -6  -2   83.31    2.85
  -5  -6  -2    7.89    0.34
  -6  -6  -2    0.81    0.16
  -6  -6  -2    0.40    0.14
  -7  -6  -2    2.81    0.28
  -7  -6  -2    2.41    0.29
  -7  -6  -2    2.71    0.28
  -8  -6  -2   26.89    1.13
  -8  -6  -2   26.24    1.11
  -9  -6  -2    1.00    0.29
  -9  -6  -2    1.00    0.29
 -10  -6  -2    2.42    0.42
 -10  -6  -2    2.90    0.45
 -11  -6  -2    1.29    0.41
 -11  -6  -2    0.92    0.41
 -12  -6  -2   -0.11    0.42
 -12  -6  -2    0.57    0.46
 -13  -6  -2    0.84    0.57
 -13  -6  -2   -0.27    0.50
   7  -7  -2    1.20    0.61
   6  -7  -2    4.08    0.79
   5  -7  -2    0.09    0.40
   4  -7  -2    0.41    0.37
   4  -7  -2    0.08    0.36
   3  -7  -2    7.13    0.64
   3  -7  -2    6.81    0.72
   2  -7  -2    0.01    0.25
   2  -7  -2   -0.14    0.25
   1  -7  -2    1.79    0.32
   1  -7  -2    1.30    0.30
   0  -7  -2   23.19    0.95
   0  -7  -2   23.42    0.98
   0  -7  -2   22.25    0.99
   0  -7  -2   21.81    0.99
  -1  -7  -2   34.60    1.30
  -1  -7  -2   34.56    1.32
  -1  -7  -2   33.54    1.29
  -1  -7  -2   33.82    1.32
  -1  -7  -2   34.99    1.32
  -2  -7  -2    1.32    0.17
  -2  -7  -2    1.09    0.18
  -3  -7  -2   12.40    0.50
  -3  -7  -2   11.52    0.47
  -6  -7  -2   18.84    0.73
  -7  -7  -2    1.18    0.21
  -8  -7  -2    7.06    0.48
  -8  -7  -2    7.45    0.49
  -9  -7  -2    0.05    0.22
  -9  -7  -2    0.12    0.25
 -10  -7  -2    1.53    0.36
 -10  -7  -2    1.93    0.38
 -11  -7  -2    0.95    0.37
 -11  -7  -2    0.87    0.40
 -12  -7  -2    1.98    0.53
 -12  -7  -2    1.25    0.44
 -13  -7  -2    0.63    0.52
 -13  -7  -2    0.55    0.50
   6  -8  -2    1.10    0.65
   5  -8  -2    0.41    0.50
   4  -8  -2    0.24    0.41
   3  -8  -2    0.53    0.40
   3  -8  -2   -0.03    0.38
   2  -8  -2    4.98    0.57
   2  -8  -2    4.77    0.56
   1  -8  -2    2.86    0.43
   1  -8  -2    3.34    0.46
   0  -8  -2    2.52    0.37
   0  -8  -2    2.45    0.36
  -1  -8  -2   49.02    1.88
  -1  -8  -2   51.92    1.88
  -1  -8  -2   48.88    1.87
  -2  -8  -2   31.14    1.18
  -2  -8  -2   30.28    1.20
  -2  -8  -2   30.49    1.17
  -2  -8  -2   31.89    1.22
  -3  -8  -2  226.19    7.62
  -3  -8  -2  229.48    7.64
  -4  -8  -2    1.55    0.18
  -4  -8  -2    1.35    0.14
  -6  -8  -2    1.07    0.16
  -7  -8  -2   14.66    0.64
  -8  -8  -2    4.16    0.38
  -8  -8  -2    4.65    0.37
  -9  -8  -2   -0.13    0.22
  -9  -8  -2    0.05    0.22
 -10  -8  -2   -0.01    0.28
 -10  -8  -2   -0.03    0.26
 -11  -8  -2    0.19    0.34
 -11  -8  -2    0.29    0.35
 -12  -8  -2    0.44    0.42
 -12  -8  -2    0.88    0.44
 -13  -8  -2    1.02    0.50
 -13  -8  -2    0.50    0.53
   5  -9  -2   -0.59    0.54
   4  -9  -2    0.04    0.48
   3  -9  -2    0.76    0.47
   2  -9  -2    1.17    0.46
   1  -9  -2    1.76    0.43
   0  -9  -2    0.55    0.32
   0  -9  -2    0.84    0.31
  -1  -9  -2    2.61    0.38
  -1  -9  -2    3.33    0.41
  -2  -9  -2   -0.30    0.19
  -2  -9  -2    0.06    0.20
  -3  -9  -2    0.07    0.13
  -3  -9  -2   -0.10    0.17
  -4  -9  -2    4.24    0.27
  -4  -9  -2    4.45    0.32
  -5  -9  -2    0.83    0.16
  -7  -9  -2   17.36    0.73
  -8  -9  -2    0.34    0.21
  -9  -9  -2    2.74    0.37
 -10  -9  -2    0.32    0.27
 -10  -9  -2   -0.11    0.28
 -11  -9  -2    0.13    0.36
 -11  -9  -2    0.10    0.33
 -12  -9  -2    0.34    0.40
 -12  -9  -2    1.25    0.47
 -13  -9  -2    0.02    0.50
 -13  -9  -2    0.35    0.47
   4 -10  -2    0.05    0.61
   3 -10  -2    3.40    0.70
   2 -10  -2    6.45    0.80
   1 -10  -2    0.21    0.40
   0 -10  -2    0.10    0.36
  -1 -10  -2    0.12    0.30
  -2 -10  -2    4.64    0.47
  -2 -10  -2    3.69    0.43
  -3 -10  -2   52.51    1.96
  -4 -10  -2    1.36    0.25
  -5 -10  -2    5.99    0.39
  -6 -10  -2    0.21    0.18
  -7 -10  -2    2.23    0.26
  -8 -10  -2    0.77    0.23
  -9 -10  -2    0.10    0.25
 -10 -10  -2    0.10    0.32
 -11 -10  -2    0.42    0.36
 -12 -10  -2   -0.16    0.42
 -12 -10  -2    0.35    0.38
   2 -11  -2    7.04    0.90
   1 -11  -2    0.86    0.50
   0 -11  -2   -0.54    0.39
  -1 -11  -2    3.59    0.54
  -2 -11  -2   19.50    1.00
  -3 -11  -2    0.09    0.28
  -4 -11  -2   11.08    0.64
  -5 -11  -2    0.51    0.23
  -6 -11  -2   -0.15    0.19
  -9 -11  -2    1.34    0.32
 -10 -11  -2    3.05    0.42
 -11 -11  -2    1.92    0.45
 -12 -11  -2    1.04    0.50
   0 -12  -2    0.81    0.58
  -1 -12  -2   -0.30    0.43
  -2 -12  -2    0.33    0.40
  -4 -12  -2    2.04    0.39
  -5 -12  -2    1.12    0.31
  -6 -12  -2    1.35    0.28
 -10 -12  -2    0.25    0.35
 -11 -12  -2    4.54    0.55
  -7 -11   3    1.14    0.56
  -7 -11   3    0.51    0.54
  -6 -11   3   -0.28    0.53
  -6 -11   3    0.09    0.52
  -5 -11   3    2.14    0.65
  -5 -11   3    3.07    0.74
  -4 -11   3   10.79    1.04
  -4 -11   3   10.40    1.04
  -3 -11   3    0.17    0.58
  -3 -11   3    1.06    0.67
  -2 -11   3    8.01    1.01
  -2 -11   3    8.15    1.02
  -9 -10   3    4.15    0.65
  -9 -10   3    3.98    0.68
  -8 -10   3    2.63    0.56
  -8 -10   3    1.94    0.60
  -7 -10   3    7.18    0.75
  -7 -10   3    6.76    0.75
  -6 -10   3   -0.30    0.42
  -6 -10   3   -0.15    0.47
  -5 -10   3    0.44    0.48
  -5 -10   3   -0.18    0.47
  -4 -10   3    0.99    0.52
  -4 -10   3    0.78    0.51
  -3 -10   3    0.16    0.48
  -3 -10   3   -0.01    0.49
  -2 -10   3    2.40    0.62
  -2 -10   3    1.88    0.61
  -1 -10   3    6.98    0.90
  -1 -10   3    7.32    0.92
   0 -10   3   -0.80    0.56
   0 -10   3    0.75    0.63
   1 -10   3    7.41    1.03
   1 -10   3    5.23    0.97
 -11  -9   3    1.98    0.63
 -10  -9   3    0.25    0.53
 -10  -9   3    0.06    0.44
  -9  -9   3    4.52    0.68
  -9  -9   3    4.00    0.60
  -8  -9   3    6.40    0.75
  -8  -9   3    6.84    0.71
  -7  -9   3    0.12    0.38
  -7  -9   3   -0.01    0.41
  -6  -9   3    0.01    0.39
  -6  -9   3    0.11    0.35
  -5  -9   3    5.06    0.62
  -5  -9   3    5.64    0.66
  -4  -9   3    0.17    0.40
  -4  -9   3    0.70    0.43
  -3  -9   3   22.73    1.25
  -3  -9   3   22.22    1.27
  -2  -9   3    0.71    0.43
  -2  -9   3    0.55    0.44
  -1  -9   3    0.56    0.42
  -1  -9   3    0.21    0.44
  -1  -9   3    0.08    0.43
   0  -9   3    0.28    0.49
   0  -9   3    0.80    0.53
   0  -9   3    0.24    0.49
   1  -9   3    0.22    0.56
   1  -9   3    0.84    0.59
   1  -9   3    1.91    0.65
   2  -9   3    0.62    0.60
   2  -9   3    1.09    0.66
   2  -9   3    1.20    0.68
   3  -9   3   -0.02    0.64
   3  -9   3   -0.02    0.78
   3  -9   3    0.56    0.71
 -11  -8   3    2.96    0.66
 -11  -8   3    1.88    0.61
 -10  -8   3    0.86    0.48
 -10  -8   3   -0.15    0.45
  -9  -8   3    4.01    0.61
  -9  -8   3    2.34    0.50
  -8  -8   3    3.65    0.54
  -8  -8   3    4.59    0.59
  -7  -8   3   20.78    1.12
  -7  -8   3   21.75    1.16
  -6  -8   3    1.11    0.39
  -6  -8   3    1.21    0.37
  -5  -8   3   -0.19    0.31
  -5  -8   3    0.23    0.33
  -4  -8   3    0.11    0.33
  -4  -8   3    0.27    0.34
  -3  -8   3   14.45    0.91
  -3  -8   3   13.59    0.88
  -2  -8   3    2.88    0.50
  -2  -8   3    3.23    0.53
  -1  -8   3    1.41    0.45
  -1  -8   3    1.61    0.43
   0  -8   3    1.80    0.48
   0  -8   3    0.58    0.39
   0  -8   3    0.32    0.41
   1  -8   3    3.59    0.65
   1  -8   3    4.43    0.71
   1  -8   3    4.10    0.69
   2  -8   3    0.13    0.52
   2  -8   3    0.06    0.52
   2  -8   3   -0.02    0.48
   3  -8   3    2.31    0.74
   3  -8   3    1.80    0.62
   3  -8   3    1.94    0.68
   4  -8   3   -0.08    0.61
   4  -8   3   -0.93    0.64
   4  -8   3    0.78    0.68
 -12  -7   3    1.22    0.65
 -12  -7   3    2.07    0.68
 -11  -7   3    0.82    0.51
 -11  -7   3   -0.29    0.47
 -10  -7   3    0.67    0.45
 -10  -7   3    0.53    0.45
  -9  -7   3   10.64    0.83
  -9  -7   3    8.68    0.80
  -8  -7   3   42.43    1.79
  -8  -7   3   40.81    1.79
  -7  -7   3    3.15    0.46
  -7  -7   3    3.42    0.50
  -6  -7   3    1.33    0.35
  -6  -7   3    1.64    0.39
  -5  -7   3    0.28    0.27
  -5  -7   3    0.02    0.26
  -4  -7   3    0.96    0.31
  -4  -7   3    0.26    0.29
  -3  -7   3   44.31    1.79
  -3  -7   3   41.80    1.77
  -2  -7   3    6.45    0.61
  -2  -7   3    7.74    0.63
  -1  -7   3   12.33    0.81
  -1  -7   3   11.05    0.78
   0  -7   3    4.23    0.56
   0  -7   3    3.88    0.51
   1  -7   3    0.01    0.32
   1  -7   3    0.32    0.37
   1  -7   3    0.37    0.37
   2  -7   3    1.56    0.49
   2  -7   3    1.19    0.51
   2  -7   3    0.63    0.43
   3  -7   3    1.35    0.53
   3  -7   3    0.91    0.52
   3  -7   3    1.43    0.56
   4  -7   3   -0.61    0.53
   4  -7   3    0.56    0.54
   4  -7   3    0.26    0.49
   5  -7   3    1.13    0.66
   5  -7   3    0.18    0.64
   5  -7   3    0.50    0.69
   6  -7   3    1.34    0.77
   6  -7   3    0.79    0.71
 -12  -6   3    1.43    0.64
 -12  -6   3    0.72    0.58
 -11  -6   3    0.19    0.50
 -11  -6   3    0.81    0.52
 -10  -6   3    0.66    0.42
 -10  -6   3    0.99    0.46
  -9  -6   3    0.12    0.36
  -9  -6   3   -0.32    0.31
  -8  -6   3    1.88    0.40
  -8  -6   3    2.07    0.42
  -7  -6   3    0.03    0.28
  -7  -6   3    0.65    0.31
  -6  -6   3    6.44    0.56
  -6  -6   3    6.95    0.58
  -5  -6   3    0.80    0.27
  -5  -6   3    0.19    0.25
  -4  -6   3   16.05    0.85
  -4  -6   3   17.43    0.87
  -3  -6   3    0.29    0.25
  -3  -6   3   -0.03    0.20
  -2  -6   3    1.73    0.36
  -2  -6   3    2.14    0.36
  -1  -6   3    0.38    0.26
  -1  -6   3    0.12    0.24
   0  -6   3    1.07    0.33
   0  -6   3    1.12    0.33
   1  -6   3    7.51    0.66
   1  -6   3    6.80    0.64
   2  -6   3    5.06    0.61
   2  -6   3    4.06    0.58
   2  -6   3    4.12    0.55
   3  -6   3    0.37    0.38
   3  -6   3   -0.10    0.39
   3  -6   3    0.55    0.39
   4  -6   3    1.02    0.50
   4  -6   3    1.84    0.50
   4  -6   3    2.09    0.57
   5  -6   3    0.58    0.50
   5  -6   3   -0.10    0.48
   5  -6   3    0.75    0.56
   6  -6   3    0.86    0.67
   6  -6   3    0.18    0.62
   7  -6   3    0.90    0.74
   7  -6   3    0.27    0.69
 -11  -5   3    5.64    2.17
 -11  -5   3    1.88    0.55
 -11  -5   3    2.45    0.60
 -10  -5   3    1.41    1.43
 -10  -5   3   -0.31    0.38
 -10  -5   3   -0.16    0.38
  -9  -5   3    0.31    0.38
  -9  -5   3    0.15    0.35
  -9  -5   3    0.17    1.10
  -8  -5   3   45.57    2.02
  -8  -5   3   60.59    4.84
  -8  -5   3   48.46    2.04
  -7  -5   3    4.28    0.50
  -7  -5   3    5.36    0.51
  -6  -5   3    3.44    0.41
  -6  -5   3    3.86    0.44
  -5  -5   3    0.59    0.24
  -5  -5   3    0.49    0.23
  -4  -5   3    1.53    0.28
  -4  -5   3    2.35    0.34
   3   5  -3   20.82    0.84
  -3  -5   3   19.83    0.88
  -3  -5   3   20.41    0.94
  -3  -5   3   20.68    0.94
   2   5  -3    0.13    0.06
  -2  -5   3    0.21    0.19
  -2  -5   3    0.09    0.18
   1   5  -3    0.56    0.11
  -1  -5   3    0.28    0.21
  -1  -5   3   -0.08    0.20
   0   5  -3    3.18    0.25
   0   5  -3    3.43    0.28
   0  -5   3    2.95    0.39
   0  -5   3    2.59    0.37
  -1   5  -3    2.42    0.31
  -1   5  -3    2.17    0.22
   1  -5   3    1.78    0.36
   1  -5   3    1.56    0.33
   2  -5   3    1.89    0.40
   2  -5   3    1.15    0.36
   3  -5   3    0.30    0.32
   3  -5   3    0.04    0.32
   3  -5   3    0.26    0.30
   4  -5   3   11.50    0.87
   4  -5   3   10.98    0.86
   4  -5   3   10.72    0.86
   5  -5   3    3.27    0.63
   5  -5   3    3.35    0.64
   5  -5   3    3.36    0.63
   6  -5   3    6.72    0.87
   6  -5   3    7.78    0.89
   6  -5   3    4.67    0.76
   7  -5   3    0.53    0.56
   7  -5   3    0.37    0.57
   8  -5   3    0.15    0.65
   8  -5   3   -0.69    0.61
 -12  -4   3    1.96    2.57
 -12  -4   3   -0.36    0.49
 -12  -4   3    0.55    0.61
 -11  -4   3    2.71    0.60
 -11  -4   3    3.42    2.31
 -11  -4   3    2.37    0.58
 -10  -4   3    1.13    1.38
 -10  -4   3    1.67    0.47
 -10  -4   3    0.87    0.41
  -9  -4   3    2.52    1.13
  -9  -4   3    1.55    0.43
  -9  -4   3    1.68    0.43
  -8  -4   3    3.03    0.94
  -8  -4   3    4.78    0.53
  -8  -4   3    5.14    0.57
  -7  -4   3    4.38    0.47
  -7  -4   3    2.57    0.96
  -7  -4   3    4.63    0.53
   6   4  -3    0.90    0.14
  -6  -4   3    1.03    0.29
  -6  -4   3    0.09    0.75
  -6  -4   3    0.59    0.25
   5   4  -3    0.26    0.08
  -5  -4   3   -0.01    0.07
  -5  -4   3    0.71    0.23
  -5  -4   3    0.00    0.19
   4   4  -3    1.54    0.21
   4   4  -3    1.63    0.18
  -4  -4   3    1.29    0.25
  -4  -4   3    1.22    0.24
   3   4  -3   27.82    1.07
   3   4  -3   27.77    1.05
  -3  -4   3   27.45    1.13
  -3  -4   3   27.53    1.14
   2   4  -3    3.43    0.26
   2   4  -3    3.30    0.23
  -2  -4   3    3.51    0.35
  -2  -4   3    3.56    0.35
   1   4  -3    2.04    0.19
   1   4  -3    1.32    0.19
  -1  -4   3    0.93    0.16
  -1  -4   3    1.95    0.30
  -1  -4   3    1.28    0.20
  -1  -4   3    1.92    0.29
   0   4  -3    0.88    0.18
   0  -4   3    1.18    0.19
   0  -4   3    1.09    0.18
   0  -4   3    0.58    0.23
   0  -4   3    0.87    0.23
  -1   4  -3   50.10    1.86
  -1   4  -3   49.19    1.88
   1  -4   3   46.93    1.92
   1  -4   3   50.41    1.91
   1  -4   3   49.96    1.95
   1  -4   3   51.93    1.90
  -2   4  -3   10.54    0.58
  -2   4  -3   10.71    0.57
   2  -4   3    9.59    0.66
   2  -4   3    9.94    0.67
  -3   4  -3    1.71    0.29
  -3   4  -3    1.16    0.24
   3  -4   3    1.24    0.33
   3  -4   3    1.39    0.36
  -4   4  -3    7.59    0.55
  -4   4  -3    7.00    0.52
   4  -4   3    8.76    0.71
   4  -4   3    7.54    0.78
   4  -4   3    7.17    0.66
  -5   4  -3    7.65    0.87
   5  -4   3    4.82    0.64
   5  -4   3    5.47    0.65
   5  -4   3    6.02    0.67
   6  -4   3    1.77    0.53
   6  -4   3    0.50    0.46
   6  -4   3    1.22    0.44
   7  -4   3    0.64    0.53
   7  -4   3   -0.07    0.44
   8  -4   3    0.02    0.47
   8  -4   3   -0.14    0.52
   9  -4   3    0.19    0.65
   9  -4   3   -0.70    0.55
 -12  -3   3    0.53    0.53
 -12  -3   3   -0.03    0.49
 -12  -3   3   -2.87    2.91
 -11  -3   3   -1.78    2.54
 -11  -3   3    1.05    0.52
 -11  -3   3    0.59    0.48
 -10  -3   3    0.29    0.40
 -10  -3   3   -0.24    1.88
 -10  -3   3    0.16    0.40
  -9  -3   3    1.40    0.42
  -9  -3   3    0.22    1.47
  -9  -3   3    0.71    0.38
  -8  -3   3   19.49    1.05
  -8  -3   3   19.75    1.03
   7   3  -3   26.05    1.12
  -7  -3   3   25.83    1.18
  -7  -3   3   29.05    3.28
  -7  -3   3   24.35    1.18
   5   3  -3    7.81    0.46
  -5  -3   3    8.63    0.55
  -5  -3   3    9.13    0.50
  -5  -3   3    9.90    1.60
  -5  -3   3    8.21    0.53
   4   3  -3    5.50    0.33
  -4  -3   3    5.38    0.35
  -4  -3   3    5.30    0.39
  -4  -3   3    3.49    0.72
  -4  -3   3    4.96    0.40
   3   3  -3   23.42    0.95
   3   3  -3   23.20    0.92
  -3  -3   3   25.67    0.99
  -3  -3   3   23.60    1.00
  -3  -3   3   24.08    0.99
   2   3  -3    4.33    0.27
   2   3  -3    4.40    0.29
  -2  -3   3    4.34    0.30
  -2  -3   3    4.14    0.34
  -2  -3   3    3.75    0.33
   1   3  -3    3.26    0.24
   1   3  -3    3.53    0.27
  -1  -3   3    3.35    0.26
  -1  -3   3    3.80    0.33
  -1  -3   3    2.85    0.30
   0   3  -3   27.45    1.06
   0   3  -3   26.19    1.08
   0  -3   3   29.25    1.11
   0  -3   3   27.13    1.09
   0  -3   3   26.69    1.11
   0  -3   3   28.14    1.14
  -1   3  -3    3.32    0.28
  -1   3  -3    3.39    0.29
   1  -3   3    3.55    0.30
   1  -3   3    3.41    0.28
   1  -3   3    3.01    0.35
   1  -3   3    3.86    0.39
  -2   3  -3    0.42    0.16
  -2   3  -3    0.27    0.13
   2  -3   3    0.35    0.09
   2  -3   3    0.44    0.24
   2  -3   3    0.50    0.23
  -3   3  -3    3.08    0.31
  -3   3  -3    3.46    0.34
   3  -3   3    3.10    0.40
   3  -3   3    3.20    0.41
  -4   3  -3    4.90    0.41
  -4   3  -3    5.03    0.45
   4  -3   3    6.12    0.60
   4  -3   3    5.60    0.60
  -5   3  -3    0.05    0.21
  -5   3  -3    0.53    0.27
   5  -3   3    0.59    0.30
   5  -3   3   -0.05    0.33
   5  -3   3    0.50    0.31
  -6   3  -3   38.34    1.67
  -6   3  -3   35.72    1.61
   6  -3   3   34.66    1.70
   6  -3   3   39.62    1.69
   6  -3   3   39.67    1.76
  -7   3  -3    1.07    0.37
   7  -3   3    2.97    0.60
   7  -3   3    1.55    0.46
   8  -3   3    1.73    0.52
   8  -3   3    1.41    0.54
   9  -3   3    0.65    0.56
   9  -3   3    0.90    0.57
  10  -3   3   -0.24    0.62
 -11  -2   3    0.81    0.51
 -11  -2   3   -0.19    0.42
 -11  -2   3   -2.91    2.74
 -10  -2   3    0.48    0.44
 -10  -2   3   -0.23    1.87
 -10  -2   3    0.90    0.47
  -9  -2   3    1.19    0.45
  -9  -2   3    1.14    1.34
  -9  -2   3    1.50    0.43
  -8  -2   3   -0.18    0.27
  -8  -2   3    0.58    1.10
  -8  -2   3    0.17    0.28
   7   2  -3    2.64    0.35
  -7  -2   3    2.76    0.41
  -7  -2   3    2.56    0.42
  -7  -2   3    1.65    0.92
   6   2  -3    5.36    0.41
  -6  -2   3    4.17    0.44
  -6  -2   3    4.35    0.45
   5   2  -3    5.54    0.38
  -5  -2   3    4.08    0.40
  -5  -2   3    4.16    0.77
  -5  -2   3    5.04    0.39
   4   2  -3    4.74    0.34
  -4  -2   3    4.60    0.38
  -4  -2   3    4.94    0.35
  -4  -2   3    4.57    0.36
   3   2  -3   11.91    0.55
  -3  -2   3   11.60    0.59
  -3  -2   3   12.76    0.61
  -3  -2   3   11.95    0.58
   2   2  -3   26.58    1.03
  -2  -2   3   23.19    1.72
  -2  -2   3   26.96    1.05
  -2  -2   3   28.27    1.05
  -2  -2   3   28.13    1.06
   1   2  -3   11.24    0.51
   1   2  -3   11.53    0.50
  -1  -2   3   11.18    0.55
  -1  -2   3   10.83    0.54
  -1  -2   3   11.18    0.53
   0   2  -3   12.95    0.57
   0   2  -3   12.53    0.58
   0  -2   3   12.81    0.57
   0  -2   3   12.45    0.60
   0  -2   3   12.92    0.58
   0  -2   3   12.21    0.58
   0  -2   3   12.69    0.60
  -1   2  -3   53.25    1.85
  -1   2  -3   48.86    1.85
   1  -2   3   50.23    1.85
   1  -2   3   50.37    1.89
   1  -2   3   52.02    1.89
  -2   2  -3   38.57    1.48
  -2   2  -3   37.16    1.45
   2  -2   3   38.58    1.51
   2  -2   3   39.46    1.52
  -3   2  -3   20.93    0.94
  -3   2  -3   22.20    0.96
   3  -2   3   22.49    1.01
   3  -2   3   22.70    1.00
  -4   2  -3   13.30    0.69
  -4   2  -3   12.87    0.71
   4  -2   3   14.19    0.77
   4  -2   3   14.04    0.78
  -5   2  -3    0.74    0.24
  -5   2  -3    0.64    0.25
   5  -2   3    0.48    0.26
   5  -2   3    0.53    0.27
   5  -2   3    0.72    0.31
  -6   2  -3    2.24    0.40
  -6   2  -3    2.88    0.42
   6  -2   3    2.70    0.48
   6  -2   3    2.52    0.42
   6  -2   3    2.92    0.46
  -7   2  -3   14.10    0.90
  -7   2  -3   13.52    0.84
   7  -2   3   15.44    1.00
   7  -2   3   14.30    0.93
  -8   2  -3    0.95    0.37
  -8   2  -3    0.57    0.31
   8  -2   3    1.01    0.39
   8  -2   3    0.86    0.43
  -9   2  -3    1.96    0.54
   9  -2   3    1.51    0.50
   9  -2   3    2.91    0.61
  10  -2   3    0.12    0.56
  11  -2   3    0.28    0.65
 -12  -1   3    6.10    0.91
 -12  -1   3    7.40    3.63
 -12  -1   3    7.11    0.94
 -11  -1   3   -3.38    2.61
 -11  -1   3    0.50    0.50
 -11  -1   3    1.25    0.59
 -10  -1   3   -0.02    0.40
 -10  -1   3    0.27    0.46
 -10  -1   3   -0.76    2.00
  -9  -1   3    6.05    1.72
  -9  -1   3    4.51    0.66
  -9  -1   3    5.03    0.63
   8   1  -3    0.36    0.22
  -8  -1   3    0.88    1.07
  -8  -1   3    0.25    0.30
  -8  -1   3    0.18    0.32
  -7  -1   3    5.47    0.55
  -7  -1   3    4.40    1.05
   6   1  -3    1.48    0.27
  -6  -1   3    1.91    0.31
  -6  -1   3    1.35    0.29
   5   1  -3    3.16    0.36
  -5  -1   3    2.98    0.33
  -5  -1   3    2.68    0.35
   4   1  -3    2.16    0.28
  -4  -1   3    1.56    0.24
  -4  -1   3    1.82    0.26
   2   1  -3    6.55    0.38
  -2  -1   3    6.08    0.37
  -2  -1   3    7.68    1.03
  -2  -1   3    6.44    0.40
  -2  -1   3    7.06    0.39
   1   1  -3   46.11    1.68
  -1  -1   3   46.39    1.70
  -1  -1   3   47.08    1.70
  -1  -1   3   48.83    1.70
   0   1  -3    6.42    0.34
   0   1  -3    6.24    0.35
  -1   1  -3   60.01    2.10
  -1   1  -3   59.09    2.11
   1  -1   3   60.45    2.14
   1  -1   3   58.17    2.12
   1  -1   3   59.47    2.11
  -2   1  -3    0.45    0.15
  -2   1  -3    0.40    0.13
   2  -1   3    0.18    0.14
   2  -1   3    0.19    0.16
  -3   1  -3   12.88    0.63
  -3   1  -3   11.84    0.60
   3  -1   3   12.53    0.65
   3  -1   3   13.07    0.65
  -4   1  -3   28.96    1.17
  -4   1  -3   28.52    1.18
   4  -1   3   27.27    1.21
   4  -1   3   28.25    1.21
  -5   1  -3    0.64    0.20
  -5   1  -3    0.40    0.22
   5  -1   3    0.55    0.26
   5  -1   3    0.16    0.19
  -6   1  -3   13.83    0.78
  -6   1  -3   13.57    0.80
   6  -1   3   14.56    0.81
   6  -1   3   14.08    0.86
   6  -1   3   15.12    0.85
  -7   1  -3    0.00    0.21
  -7   1  -3    0.64    0.30
   7  -1   3    0.62    0.31
   7  -1   3    0.73    0.35
  -8   1  -3    6.71    0.69
  -8   1  -3    7.14    0.64
   8  -1   3    6.18    0.70
   8  -1   3    7.64    0.71
  -9   1  -3    0.16    1.42
  -9   1  -3    0.07    0.34
  -9   1  -3    0.99    0.39
   9  -1   3    0.52    0.41
   9  -1   3   -0.11    0.40
 -10   1  -3   -2.38    1.53
 -10   1  -3    1.08    0.52
  10  -1   3    0.19    0.47
 -11   1  -3    1.56    0.78
 -11   1  -3   -2.85    1.82
  11  -1   3    1.79    0.65
 -12   0   3    1.08    0.63
 -12   0   3   -4.80    3.53
 -11   0   3    3.51    3.06
 -11   0   3    5.18    0.80
 -11   0   3    4.96    0.85
 -10   0   3    0.17    2.35
 -10   0   3    1.50    0.54
 -10   0   3    2.43    0.54
  -9   0   3    3.89    0.60
  -9   0   3    4.45    0.60
   8   0  -3    1.02    0.33
  -8   0   3    1.01    0.37
  -8   0   3    1.92    0.39
   6   0  -3   -0.02    0.16
  -6   0   3    0.21    0.24
  -6   0   3    0.47    0.25
   5   0  -3    7.08    0.50
  -5   0   3    7.44    0.51
  -5   0   3    5.91    0.47
   4   0  -3   23.55    1.00
  -4   0   3   23.69    1.00
  -4   0   3   23.93    1.01
   3   0  -3   12.85    0.63
  -3   0   3   14.01    0.65
  -3   0   3   13.52    0.63
   2   0  -3   36.39    1.38
  -2   0   3   36.64    1.39
  -2   0   3   38.30    1.39
   1   0  -3   47.39    1.67
   1   0  -3   45.21    1.64
  -1   0   3   45.51    1.64
  -1   0   3   44.32    1.63
   0   0  -3  657.95   21.80
   0   0  -3  676.71   21.60
   0   0   3  624.87   21.70
   0   0   3  637.55   21.73
  -1   0  -3    5.76    0.34
  -1   0  -3    5.95    0.34
  -1   0  -3    5.85    0.32
   1   0   3    5.93    0.35
   1   0   3    6.17    0.35
  -2   0  -3    7.30    0.37
  -2   0  -3    5.88    0.37
  -2   0  -3    6.83    0.39
   2   0   3    6.19    0.39
   2   0   3    6.68    0.39
  -3   0  -3   10.39    0.52
  -3   0  -3   10.41    0.50
   3   0   3    9.85    0.54
   3   0   3   10.08    0.53
  -4   0  -3   34.86    1.40
  -4   0  -3   37.28    1.38
   4   0   3   35.26    1.42
   4   0   3   35.28    1.40
  -5   0  -3   22.88    1.01
  -5   0  -3   21.19    0.98
   5   0   3   23.37    1.04
   5   0   3   22.72    1.03
  -6   0  -3    9.08    0.60
  -6   0  -3    8.25    0.55
   6   0   3    8.22    0.59
   6   0   3    8.28    0.57
   6   0   3    8.15    0.61
  -7   0  -3   80.64    3.08
  -7   0  -3   80.06    3.05
   7   0   3   83.22    3.10
   7   0   3   84.00    3.03
  -8   0  -3   25.78    3.26
  -8   0  -3   24.41    1.21
  -8   0  -3   23.69    1.24
   8   0   3   23.59    1.23
   8   0   3   24.40    1.19
  -9   0  -3    3.97    0.57
  -9   0  -3    2.17    1.30
  -9   0  -3    2.93    0.50
   9   0   3    1.77    0.41
   9   0   3    3.22    0.52
 -10   0  -3    1.76    1.67
 -10   0  -3   -0.53    0.37
 -10   0  -3   -0.06    0.37
  10   0   3   -0.33    0.39
 -11   0  -3   -0.60    1.83
 -11   0  -3    0.11    0.44
 -11   0  -3   -0.28    0.47
  11   0   3    0.74    0.52
 -12   0  -3    5.39    0.98
  12   0   3    6.39    0.92
 -11   1   3    0.53    0.56
 -11   1   3   -1.67    3.17
 -10   1   3    0.38    0.45
 -10   1   3    0.32    0.48
   9  -1  -3   10.43    0.83
  -9   1   3    8.69    0.87
  -9   1   3    9.60    0.80
   8  -1  -3   -0.09    0.24
  -8   1   3   -0.11    0.28
  -8   1   3   -0.23    0.30
   7  -1  -3    9.55    0.72
  -7   1   3   10.20    0.72
  -7   1   3   11.06    0.75
   6  -1  -3   11.39    0.73
  -6   1   3   12.09    0.74
  -6   1   3   11.43    0.70
   5  -1  -3    7.67    0.56
  -5   1   3   10.28    0.60
  -5   1   3    7.57    0.52
   4  -1  -3    1.21    0.24
  -4   1   3    0.79    0.22
  -4   1   3    0.93    0.21
   3  -1  -3    0.12    0.14
  -3   1   3    0.02    0.13
  -3   1   3    0.11    0.14
   2  -1  -3    0.12    0.14
   2  -1  -3    0.20    0.12
  -2   1   3    0.09    0.13
  -2   1   3    0.07    0.14
   1  -1  -3    2.55    0.25
   1  -1  -3    2.45    0.24
   1  -1  -3    2.09    0.21
  -1   1   3    2.27    0.22
  -1   1   3    2.18    0.22
   0  -1  -3   89.88    3.14
   0  -1  -3   96.15    3.14
   0  -1  -3   89.53    3.14
   0   1   3   91.85    3.14
   0   1   3   92.25    3.14
  -1  -1  -3  145.58    4.88
  -1  -1  -3  141.69    4.87
  -1  -1  -3  148.13    4.88
   1   1   3  145.78    4.88
   1   1   3  141.45    4.86
  -2  -1  -3    5.71    0.33
  -2  -1  -3    5.81    0.32
  -2  -1  -3    5.49    0.33
  -2  -1  -3    5.37    0.30
   2   1   3    5.03    0.32
   2   1   3    5.48    0.33
  -3  -1  -3    5.19    0.32
  -3  -1  -3    5.62    0.90
  -3  -1  -3    5.39    0.35
  -3  -1  -3    5.14    0.34
  -3  -1  -3    4.57    0.32
   3   1   3    5.67    0.34
   3   1   3    5.08    0.35
  -5  -1  -3    6.08    0.42
  -5  -1  -3    6.34    0.44
   5   1   3    6.41    0.44
   5   1   3    6.20    0.44
  -6  -1  -3   13.37    0.76
  -6  -1  -3   13.85    0.73
  -6  -1  -3   16.87    2.06
   6   1   3   15.28    0.74
   6   1   3   14.91    0.78
  -7  -1  -3    5.86    0.54
  -7  -1  -3    5.53    0.50
  -7  -1  -3   10.49    2.43
   7   1   3    5.66    0.52
   7   1   3    6.22    0.50
  -8  -1  -3    5.17    0.54
  -8  -1  -3    5.16    1.14
  -8  -1  -3    4.34    0.54
   8   1   3    4.50    0.56
   8   1   3    4.67    0.50
  -9  -1  -3    1.64    0.43
  -9  -1  -3    1.98    0.47
  -9  -1  -3    2.84    1.27
   9   1   3    1.66    0.40
   9   1   3    1.80    0.55
 -10  -1  -3    2.47    1.81
 -10  -1  -3    0.86    0.46
 -10  -1  -3    0.94    0.43
  10   1   3    0.77    0.41
 -11  -1  -3    4.06    0.70
 -11  -1  -3    5.97    0.87
 -11  -1  -3    4.27    2.48
  11   1   3    4.72    0.68
 -12  -1  -3    3.88    3.02
 -12  -1  -3    5.67    0.87
 -12  -1  -3    6.44    0.87
  12   1   3    5.11    0.76
 -10   2   3    4.72    0.79
   9  -2  -3    1.63    0.52
  -9   2   3    1.33    0.46
  -9   2   3    2.29    0.55
   8  -2  -3   -0.34    0.32
  -8   2   3   -0.08    0.30
  -8   2   3    0.01    0.30
   7  -2  -3    1.17    0.35
  -7   2   3    1.15    0.33
  -7   2   3    1.05    0.35
   6  -2  -3    2.35    0.39
  -6   2   3    3.39    0.44
  -6   2   3    3.77    0.50
   5  -2  -3    0.04    0.21
  -5   2   3    0.11    0.19
  -5   2   3   -0.14    0.17
   4  -2  -3    0.16    0.18
  -4   2   3    0.05    0.15
  -4   2   3    0.07    0.15
   3  -2  -3   57.13    2.12
  -3   2   3   58.87    2.10
  -3   2   3   55.99    2.10
   2  -2  -3   12.47    0.57
   2  -2  -3   11.49    0.58
  -2   2   3   13.06    0.58
  -2   2   3   11.13    0.55
   1  -2  -3   39.97    1.51
   1  -2  -3   44.43    1.53
   1  -2  -3   41.34    1.53
  -1   2   3   41.63    1.52
  -1   2   3   42.20    1.51
   0  -2  -3  151.19    5.02
   0  -2  -3  148.11    5.03
   0  -2  -3  152.86    5.03
   0   2   3  144.46    5.01
   0   2   3  149.05    5.02
  -2  -2  -3    6.38    0.31
  -2  -2  -3    7.32    0.31
   2   2   3    5.40    0.30
   2   2   3    5.39    0.30
  -3  -2  -3    0.06    0.09
  -3  -2  -3    0.21    0.10
  -3  -2  -3    0.63    0.13
  -3  -2  -3    0.75    0.13
   3   2   3    0.46    0.13
   3   2   3    0.38    0.13
  -4  -2  -3   56.88    2.00
  -4  -2  -3   56.60    2.65
  -4  -2  -3   53.32    1.96
  -4  -2  -3   56.56    1.99
  -4  -2  -3   54.29    1.98
   4   2   3   53.83    1.97
   4   2   3   54.87    1.98
  -6  -2  -3   29.40    1.22
  -6  -2  -3   28.60    1.19
  -6  -2  -3   27.52    2.40
  -6  -2  -3   30.80    1.22
   6   2   3   29.12    1.16
   6   2   3   28.74    1.21
  -7  -2  -3   20.18    0.96
  -7  -2  -3   20.81    0.99
   7   2   3   20.13    0.96
   7   2   3   20.90    0.92
  -8  -2  -3   24.45    1.16
  -8  -2  -3   22.41    1.11
   8   2   3   24.18    1.13
   8   2   3   23.15    1.06
  -9  -2  -3    0.52    0.33
  -9  -2  -3    0.52    0.30
  -9  -2  -3    0.74    1.35
   9   2   3    0.52    0.29
 -10  -2  -3    0.45    0.38
 -10  -2  -3   -0.63    1.67
 -10  -2  -3    0.73    0.39
  10   2   3    0.71    0.36
 -11  -2  -3    6.58    0.77
 -11  -2  -3    4.97    2.62
 -11  -2  -3    5.66    0.74
  11   2   3    5.80    0.67
 -12  -2  -3    2.68    0.65
 -12  -2  -3    2.73    0.72
 -12  -2  -3    3.75    2.68
  12   2   3    2.26    0.57
 -13  -2  -3    3.98    0.84
   9  -3  -3    4.82    0.81
   8  -3  -3   -0.28    0.33
  -8   3   3    0.08    0.34
   7  -3  -3    3.34    0.58
  -7   3   3    3.23    0.47
  -7   3   3    2.86    0.48
   6  -3  -3    0.61    0.37
  -6   3   3    0.54    0.30
  -6   3   3    0.51    0.26
   5  -3  -3    0.36    0.27
  -5   3   3    0.36    0.21
  -5   3   3    0.36    0.23
   4  -3  -3    2.55    0.35
  -4   3   3    2.33    0.31
  -4   3   3    2.77    0.35
   3  -3  -3    1.92    0.31
  -3   3   3    1.63    0.25
  -3   3   3    1.54    0.24
   2  -3  -3   24.02    0.94
   2  -3  -3   21.94    0.95
   2  -3  -3   22.79    0.95
  -2   3   3   22.54    0.92
  -2   3   3   22.40    0.93
   1  -3  -3   28.25    1.11
   1  -3  -3   34.60    1.15
   1  -3  -3   26.42    1.12
  -1   3   3   28.57    1.11
  -1   3   3   28.90    1.10
  -1  -3  -3   51.89    1.86
  -1  -3  -3   50.95    1.85
   1   3   3   58.33    1.85
  -2  -3  -3    1.92    0.16
   2   3   3    1.83    0.15
   2   3   3    1.51    0.14
  -3  -3  -3   11.62    0.46
  -3  -3  -3   10.97    0.47
  -3  -3  -3   11.00    0.47
  -3  -3  -3   11.51    0.48
   3   3   3   10.91    0.44
   3   3   3   11.17    0.46
  -4  -3  -3    4.54    0.29
  -4  -3  -3    4.91    0.31
  -4  -3  -3    5.24    0.29
  -4  -3  -3    5.24    0.31
   4   3   3    5.19    0.29
  -5  -3  -3   21.79    0.89
  -5  -3  -3   22.84    0.91
   5   3   3   22.18    0.90
  -6  -3  -3   17.60    0.81
  -6  -3  -3   18.21    0.80
  -6  -3  -3   17.96    1.87
  -6  -3  -3   17.41    0.80
  -6  -3  -3   16.14    0.78
   6   3   3   18.71    0.80
   6   3   3   17.93    0.75
  -7  -3  -3   24.95    1.09
  -7  -3  -3   24.94    1.11
  -7  -3  -3   24.86    1.09
  -7  -3  -3   27.36    2.11
   7   3   3   25.00    1.03
   7   3   3   24.65    1.08
  -8  -3  -3   14.11    0.80
  -8  -3  -3   14.73    0.83
   8   3   3   15.09    0.78
   8   3   3   15.15    0.74
  -9  -3  -3    1.30    0.36
  -9  -3  -3    1.24    0.37
  -9  -3  -3    0.73    0.89
   9   3   3    1.30    0.31
 -10  -3  -3    2.00    0.46
 -10  -3  -3    1.42    0.40
  10   3   3    1.64    0.37
 -11  -3  -3    4.30    0.66
 -11  -3  -3    4.52    0.68
 -11  -3  -3    4.64    2.26
  11   3   3    4.69    0.56
 -12  -3  -3   11.46    3.04
 -12  -3  -3    5.35    0.86
 -12  -3  -3    5.82    0.80
   9  -4  -3    1.15    0.51
   8  -4  -3    3.13    0.70
   7  -4  -3    3.12    0.62
   6  -4  -3    3.74    0.52
  -6   4   3    5.42    0.60
  -6   4   3    4.80    0.48
   5  -4  -3   27.70    1.36
  -5   4   3   29.60    1.28
  -5   4   3   29.48    1.30
   4  -4  -3    3.69    0.49
  -4   4   3    3.65    0.41
  -4   4   3    3.75    0.40
   3  -4  -3   -0.23    0.17
   3  -4  -3    0.38    0.12
  -3   4   3    0.12    0.13
  -3   4   3    0.09    0.14
   2  -4  -3   29.19    1.25
   2  -4  -3   32.09    1.23
   2  -4  -3   32.18    1.24
  -2   4   3   30.70    1.22
  -2   4   3   30.33    1.20
   1  -4  -3   73.96    2.68
   1  -4  -3   78.78    2.68
  -1   4   3   78.06    2.64
  -1   4   3   71.83    2.64
   0  -4  -3    3.10    0.26
   0  -4  -3    2.79    0.24
   0  -4  -3    2.89    0.23
   0   4   3    3.38    0.23
   0   4   3    2.86    0.20
  -1  -4  -3  114.46    3.87
  -1  -4  -3  108.73    3.87
  -1  -4  -3  116.68    3.87
   1   4   3  115.27    3.82
   1   4   3  117.93    3.85
  -2  -4  -3    6.38    0.29
  -3  -4  -3   33.68    1.20
  -3  -4  -3   34.03    1.20
  -3  -4  -3   35.00    1.21
  -4  -4  -3    4.82    0.28
  -4  -4  -3    5.28    0.30
  -4  -4  -3    5.86    0.28
  -4  -4  -3    5.10    0.28
  -5  -4  -3    3.59    0.28
  -5  -4  -3    3.70    0.26
  -5  -4  -3    4.39    0.29
  -5  -4  -3    3.45    0.27
   5   4   3    4.82    0.36
  -6  -4  -3   17.30    0.76
  -6  -4  -3   16.96    0.77
  -6  -4  -3   17.75    0.76
  -6  -4  -3   17.93    0.77
   6   4   3   17.20    0.73
   6   4   3   17.79    0.70
  -7  -4  -3   12.61    2.38
  -7  -4  -3   17.07    0.80
  -7  -4  -3   16.70    0.78
   7   4   3   16.19    0.74
   7   4   3   17.43    0.71
  -8  -4  -3   29.63    1.27
  -8  -4  -3   28.90    1.28
  -8  -4  -3   27.43    2.59
   8   4   3   30.98    1.32
   8   4   3   30.73    1.18
  -9  -4  -3    3.49    0.46
  -9  -4  -3    3.30    0.49
   9   4   3    3.65    0.37
 -10  -4  -3    0.20    0.33
 -10  -4  -3   -0.16    1.11
 -10  -4  -3    0.53    0.37
  10   4   3    0.19    0.24
 -11  -4  -3    1.09    0.47
 -11  -4  -3    1.25    1.72
 -11  -4  -3    1.33    0.47
 -12  -4  -3    4.10    2.19
 -12  -4  -3    1.11    0.53
 -12  -4  -3    0.87    0.56
   9  -5  -3    0.00    0.60
   8  -5  -3    2.14    0.59
   7  -5  -3    0.83    0.51
   6  -5  -3    4.07    0.61
   5  -5  -3    4.73    0.65
   4  -5  -3    4.56    0.51
  -4   5   3    6.27    0.45
  -4   5   3    6.08    0.47
   3  -5  -3    4.18    0.46
  -3   5   3    4.07    0.34
  -3   5   3    4.08    0.36
   2  -5  -3   -0.04    0.07
   2  -5  -3    0.27    0.09
   2  -5  -3    0.11    0.20
  -2   5   3    0.25    0.12
  -2   5   3   -0.02    0.10
   1  -5  -3    0.31    0.10
   1  -5  -3    0.24    0.17
  -1   5   3    0.21    0.11
  -1   5   3    0.21    0.10
   0  -5  -3    9.65    0.45
   0  -5  -3    8.66    0.47
   0  -5  -3    8.80    0.45
   0   5   3    8.68    0.42
   0   5   3    9.05    0.40
  -1  -5  -3   46.39    1.67
  -1  -5  -3   46.85    1.68
  -1  -5  -3   48.84    1.67
  -2  -5  -3   25.29    0.88
   2   5   3   23.76    0.92
   3   5   3    6.85    0.29
  -4  -5  -3   94.10    3.19
  -4  -5  -3   95.59    3.18
  -5  -5  -3    0.74    0.13
  -5  -5  -3    1.04    0.16
  -5  -5  -3    1.20    0.17
  -5  -5  -3    0.92    0.15
  -6  -5  -3    1.25    0.20
  -6  -5  -3    1.17    0.19
  -6  -5  -3    1.32    0.20
  -6  -5  -3    1.19    0.20
   6   5   3    1.26    0.13
  -7  -5  -3   18.87    0.86
  -7  -5  -3   19.93    0.86
  -7  -5  -3   19.90    0.85
  -7  -5  -3   19.65    0.85
   7   5   3   18.93    0.75
  -8  -5  -3   14.98    0.80
  -8  -5  -3   17.16    0.80
   8   5   3   15.69    0.68
  -9  -5  -3    1.63    0.32
  -9  -5  -3    1.06    1.17
  -9  -5  -3    1.57    0.32
 -10  -5  -3    1.31    0.40
 -10  -5  -3    0.72    0.35
 -10  -5  -3    0.92    1.40
 -11  -5  -3   11.75    0.88
 -11  -5  -3   10.90    0.89
 -12  -5  -3   25.82    1.44
 -12  -5  -3   27.11    1.48
   8  -6  -3    2.66    0.76
   7  -6  -3   -0.57    0.51
   6  -6  -3   -0.50    0.37
   5  -6  -3    0.29    0.38
   4  -6  -3    2.45    0.44
   3  -6  -3    1.14    0.33
   2  -6  -3    0.12    0.22
  -2   6   3    0.30    0.09
  -2   6   3    0.29    0.10
   0  -6  -3    2.21    0.29
   0  -6  -3    2.30    0.24
   0  -6  -3    2.46    0.24
  -1  -6  -3    0.60    0.14
  -1  -6  -3    0.68    0.14
  -1  -6  -3    0.43    0.15
  -2  -6  -3   13.11    0.52
   3   6   3    8.87    0.37
  -5  -6  -3    5.59    0.27
  -5  -6  -3    5.38    0.27
  -6  -6  -3   -0.05    0.11
  -6  -6  -3    0.04    0.11
  -6  -6  -3    0.27    0.13
  -6  -6  -3    0.05    0.13
  -7  -6  -3   -0.03    0.12
  -7  -6  -3    0.22    0.16
  -7  -6  -3    0.26    0.15
  -7  -6  -3   -0.20    0.14
  -8  -6  -3    2.69    0.33
  -8  -6  -3    3.14    0.34
  -9  -6  -3    7.72    0.59
  -9  -6  -3    7.23    0.56
 -10  -6  -3    0.20    0.29
 -10  -6  -3    0.28    0.30
 -11  -6  -3   -0.33    0.31
 -11  -6  -3   -0.16    0.34
 -12  -6  -3    8.13    0.80
 -12  -6  -3    6.53    0.76
 -13  -6  -3    0.85    0.53
 -13  -6  -3    0.43    0.57
   7  -7  -3   -0.03    0.51
   6  -7  -3    4.58    0.71
   5  -7  -3    0.75    0.50
   4  -7  -3    7.07    0.73
   3  -7  -3    5.44    0.61
   2  -7  -3    6.01    0.57
   1  -7  -3   47.32    1.85
   0  -7  -3    1.39    0.21
   0  -7  -3    1.49    0.27
   0  -7  -3    1.20    0.26
  -1  -7  -3    0.84    0.17
  -1  -7  -3    0.73    0.16
  -1  -7  -3    0.90    0.19
  -2  -7  -3    4.15    0.27
  -3  -7  -3    0.39    0.10
  -6  -7  -3    7.52    0.35
  -7  -7  -3    0.35    0.14
  -7  -7  -3    0.37    0.16
  -8  -7  -3    0.32    0.20
  -8  -7  -3    0.12    0.19
  -9  -7  -3    2.03    0.34
  -9  -7  -3    2.26    0.34
 -10  -7  -3    0.59    0.31
 -10  -7  -3    0.41    0.28
 -11  -7  -3    0.76    0.37
 -11  -7  -3    0.73    0.38
 -12  -7  -3    3.07    0.54
 -12  -7  -3    5.26    0.68
 -13  -7  -3    0.64    0.52
 -13  -7  -3    0.64    0.51
   6  -8  -3    1.31    0.62
   5  -8  -3   -0.26    0.49
   4  -8  -3    0.16    0.39
   3  -8  -3    0.71    0.40
   2  -8  -3    0.58    0.31
   1  -8  -3   35.42    1.51
   0  -8  -3    3.85    0.42
  -1  -8  -3   -0.11    0.18
  -1  -8  -3   -0.07    0.15
  -2  -8  -3   20.87    0.85
  -2  -8  -3   22.23    0.86
  -2  -8  -3   20.74    0.87
  -3  -8  -3  103.08    3.49
  -7  -8  -3    1.20    0.18
  -8  -8  -3   -0.09    0.18
  -9  -8  -3    1.82    0.32
  -9  -8  -3    2.40    0.33
 -10  -8  -3    1.46    0.36
 -11  -8  -3    1.51    0.40
 -11  -8  -3    1.05    0.38
 -12  -8  -3    0.60    0.41
 -12  -8  -3    0.96    0.45
 -13  -8  -3    0.39    0.53
 -13  -8  -3    0.32    0.45
   5  -9  -3    1.84    0.70
   4  -9  -3   -0.45    0.42
   3  -9  -3    1.70    0.51
   2  -9  -3    0.61    0.39
   1  -9  -3   11.90    0.81
   0  -9  -3    0.13    0.26
  -1  -9  -3    0.45    0.23
  -2  -9  -3    9.11    0.53
  -3  -9  -3    6.49    0.35
  -4  -9  -3    0.61    0.14
  -4  -9  -3    0.56    0.12
  -7  -9  -3    0.75    0.15
  -8  -9  -3    0.68    0.19
  -8  -9  -3    0.71    0.20
  -9  -9  -3    0.53    0.25
 -10  -9  -3    2.71    0.40
 -10  -9  -3    2.22    0.34
 -11  -9  -3    0.06    0.33
 -11  -9  -3   -0.12    0.31
 -12  -9  -3    5.27    0.64
 -12  -9  -3    3.72    0.54
 -13  -9  -3    1.39    0.51
 -13  -9  -3    1.76    0.57
   4 -10  -3    0.33    0.60
   3 -10  -3    1.69    0.60
   2 -10  -3    4.19    0.65
   1 -10  -3    3.43    0.54
   0 -10  -3   -0.50    0.28
  -1 -10  -3    1.12    0.33
  -2 -10  -3    0.09    0.24
  -4 -10  -3    9.96    0.46
  -8 -10  -3   13.50    0.60
  -9 -10  -3    2.33    0.30
 -10 -10  -3   -0.09    0.27
 -11 -10  -3   -0.11    0.34
 -12 -10  -3    1.90    0.48
 -12 -10  -3    1.75    0.43
 -13 -10  -3   -0.12    0.50
 -13 -10  -3    0.41    0.47
   2 -11  -3    1.25    0.59
   1 -11  -3   -0.09    0.44
   0 -11  -3    8.57    0.81
  -1 -11  -3    1.45    0.41
  -2 -11  -3    2.25    0.40
  -9 -11  -3    2.58    0.30
 -10 -11  -3    0.76    0.31
 -11 -11  -3   -0.03    0.35
 -12 -11  -3   -0.45    0.40
   0 -12  -3    0.62    0.53
  -1 -12  -3   -0.21    0.41
  -2 -12  -3    1.41    0.41
 -11 -12  -3    0.26    0.35
  -2 -13  -3   -0.24    0.44
  -8 -10   4    0.00    0.53
  -8 -10   4    0.58    0.58
  -7 -10   4    5.62    0.74
  -7 -10   4    4.12    0.72
  -6 -10   4   -0.45    0.53
  -6 -10   4    0.37    0.53
  -5 -10   4   -0.05    0.55
  -5 -10   4    0.63    0.56
  -4 -10   4    1.12    0.59
  -4 -10   4    1.27    0.61
  -3 -10   4    8.73    0.97
  -3 -10   4   10.13    1.06
  -2 -10   4    2.09    0.70
  -2 -10   4    0.55    0.64
  -1 -10   4    3.08    0.82
  -1 -10   4    4.33    0.85
 -10  -9   4    0.88    0.54
 -10  -9   4    1.90    0.67
  -9  -9   4    0.47    0.47
  -9  -9   4    0.95    0.58
  -8  -9   4    1.66    0.54
  -8  -9   4    0.75    0.53
  -7  -9   4    2.82    0.62
  -7  -9   4    3.66    0.63
  -6  -9   4    0.29    0.43
  -6  -9   4    0.85    0.48
  -5  -9   4    0.53    0.47
  -5  -9   4    0.84    0.50
  -4  -9   4    4.35    0.69
  -4  -9   4    4.37    0.68
  -3  -9   4    0.41    0.45
  -3  -9   4    0.74    0.48
  -2  -9   4    1.09    0.53
  -2  -9   4    1.20    0.54
  -1  -9   4    0.52    0.54
  -1  -9   4    0.01    0.51
   0  -9   4    0.44    0.57
   0  -9   4    1.11    0.60
   0  -9   4    0.53    0.59
   1  -9   4    5.16    0.90
   1  -9   4    5.52    0.89
   1  -9   4    5.99    0.90
   2  -9   4    0.78    0.68
   2  -9   4    0.73    0.69
   2  -9   4    0.02    0.73
 -11  -8   4    1.08    0.58
 -11  -8   4    1.95    0.67
 -10  -8   4    3.61    0.70
 -10  -8   4    3.22    0.64
  -9  -8   4    3.63    0.63
  -9  -8   4    3.96    0.69
  -8  -8   4    5.84    0.72
  -8  -8   4    5.91    0.69
  -7  -8   4   12.51    0.92
  -7  -8   4   11.35    0.94
  -6  -8   4    3.35    0.54
  -6  -8   4    2.02    0.53
  -5  -8   4    0.96    0.43
  -5  -8   4    1.48    0.45
  -4  -8   4   -0.17    0.36
  -4  -8   4    0.02    0.40
  -3  -8   4    2.42    0.52
  -3  -8   4    2.92    0.55
  -2  -8   4    1.18    0.47
  -2  -8   4    1.89    0.50
  -1  -8   4    2.15    0.53
  -1  -8   4    3.41    0.60
   0  -8   4    0.65    0.48
   0  -8   4    0.41    0.46
   1  -8   4   -0.23    0.48
   1  -8   4    0.47    0.49
   1  -8   4    0.39    0.56
   2  -8   4    1.18    0.59
   2  -8   4    0.80    0.66
   2  -8   4    1.16    0.58
   3  -8   4    0.11    0.73
   3  -8   4    0.84    0.68
   3  -8   4    0.02    0.62
   4  -8   4    4.19    0.89
   4  -8   4    4.51    0.91
   4  -8   4    4.34    0.99
 -11  -7   4   -0.52    0.51
 -11  -7   4   -0.09    0.53
 -10  -7   4   15.32    1.16
 -10  -7   4   16.76    1.16
  -9  -7   4    0.59    0.45
  -9  -7   4    0.22    0.40
  -8  -7   4    0.38    0.41
  -8  -7   4    0.24    0.39
  -7  -7   4    0.74    0.38
  -7  -7   4    0.56    0.41
  -6  -7   4    0.14    0.31
  -6  -7   4    0.16    0.35
  -5  -7   4    0.25    0.35
  -5  -7   4    0.73    0.35
  -4  -7   4    3.23    0.49
  -4  -7   4    4.60    0.55
  -3  -7   4    6.61    0.68
  -3  -7   4    5.77    0.63
  -2  -7   4    3.98    0.55
  -2  -7   4    5.39    0.63
  -1  -7   4    1.35    0.42
  -1  -7   4    1.43    0.42
   0  -7   4    2.98    0.52
   0  -7   4    2.85    0.53
   1  -7   4    0.18    0.43
   1  -7   4   -0.40    0.35
   2  -7   4    0.98    0.50
   2  -7   4    1.48    0.57
   2  -7   4    2.08    0.62
   3  -7   4   -0.21    0.47
   3  -7   4    0.41    0.57
   3  -7   4    0.42    0.51
   4  -7   4   -0.37    0.54
   4  -7   4    0.20    0.56
   4  -7   4   -0.08    0.62
   5  -7   4    1.88    0.83
   5  -7   4    1.15    0.72
   5  -7   4    1.45    0.70
 -12  -6   4    1.92    0.67
 -12  -6   4    1.08    0.69
 -11  -6   4    1.21    0.58
 -11  -6   4    1.20    0.57
 -10  -6   4    2.40    0.59
 -10  -6   4    2.70    0.59
  -9  -6   4    2.24    0.53
  -9  -6   4    2.46    0.53
  -8  -6   4    4.88    0.62
  -8  -6   4    4.12    0.58
  -7  -6   4   18.62    1.02
  -7  -6   4   17.77    1.03
  -6  -6   4   35.58    1.59
  -6  -6   4   38.44    1.63
  -5  -6   4    3.73    0.48
  -5  -6   4    3.59    0.48
  -4  -6   4    9.68    0.69
  -4  -6   4    9.07    0.68
  -3  -6   4    5.41    0.54
  -3  -6   4    3.68    0.46
  -2  -6   4    1.40    0.37
  -2  -6   4    1.80    0.38
  -1  -6   4    0.27    0.29
  -1  -6   4   -0.13    0.28
   0  -6   4    0.88    0.36
   0  -6   4    1.03    0.41
   1  -6   4    6.28    0.68
   1  -6   4    5.91    0.68
   2  -6   4    0.81    0.37
   2  -6   4    1.09    0.44
   3  -6   4    1.56    0.51
   3  -6   4    1.40    0.50
   3  -6   4    2.17    0.57
   4  -6   4    0.09    0.46
   4  -6   4    0.34    0.51
   4  -6   4    0.64    0.52
   5  -6   4    0.50    0.57
   5  -6   4    0.03    0.53
   5  -6   4    0.22    0.54
   6  -6   4    1.38    0.65
   6  -6   4    0.97    0.67
   6  -6   4    0.30    0.65
 -10  -5   4    4.80    1.81
 -10  -5   4    1.99    0.54
 -10  -5   4    2.98    0.61
  -9  -5   4    6.31    0.70
  -9  -5   4    7.08    0.77
  -8  -5   4    2.29    0.46
  -8  -5   4    4.92    1.60
  -8  -5   4    2.01    0.44
  -7  -5   4   55.56    2.25
  -7  -5   4   56.85    2.24
  -6  -5   4    8.29    0.64
  -6  -5   4    8.83    0.66
  -5  -5   4    1.65    0.35
  -5  -5   4    1.79    0.34
  -4  -5   4    1.71    0.34
  -4  -5   4    0.80    0.29
  -3  -5   4    8.76    0.61
  -3  -5   4    8.48    0.61
   2   5  -4   14.17    0.71
   2   5  -4   13.76    0.68
  -2  -5   4   12.40    0.75
  -2  -5   4   13.48    0.78
   1   5  -4    0.00    0.07
  -1  -5   4    0.22    0.26
  -1  -5   4    0.11    0.23
   0  -5   4    3.53    0.46
   0  -5   4    4.17    0.53
   1  -5   4    0.13    0.30
   1  -5   4   -0.18    0.26
   2  -5   4    4.47    0.58
   2  -5   4    5.00    0.60
   3  -5   4    0.16    0.37
   3  -5   4   -0.05    0.32
   4  -5   4   -0.01    0.40
   4  -5   4    0.22    0.43
   4  -5   4   -0.30    0.40
   5  -5   4    1.02    0.53
   5  -5   4    1.73    0.54
   5  -5   4    0.66    0.49
   6  -5   4    1.27    0.59
   6  -5   4    0.96    0.60
   6  -5   4    1.25    0.56
   7  -5   4    1.66    0.69
   7  -5   4    0.32    0.58
   8  -5   4    2.60    0.72
   8  -5   4    4.15    0.89
 -11  -4   4    2.35    0.62
 -11  -4   4    3.93    0.74
 -11  -4   4    6.35    2.61
 -10  -4   4    0.49    0.45
 -10  -4   4    0.23    0.46
 -10  -4   4   -0.07    1.76
  -9  -4   4    1.85    0.49
  -9  -4   4    1.43    0.46
  -9  -4   4    1.92    1.47
  -8  -4   4    0.07    0.32
  -8  -4   4   -0.16    0.29
  -7  -4   4   -0.25    0.88
  -7  -4   4    0.88    0.32
  -7  -4   4    0.81    0.32
  -6  -4   4    5.76    0.55
  -6  -4   4    5.44    0.53
   5   4  -4    2.58    0.24
  -5  -4   4    2.31    0.36
  -5  -4   4    3.10    0.41
   4   4  -4   18.31    0.76
   4   4  -4   17.88    0.79
   4   4  -4   18.16    0.78
  -4  -4   4   18.07    0.89
  -4  -4   4   17.76    0.89
   3   4  -4   61.23    2.15
   3   4  -4   58.84    2.17
  -3  -4   4   60.56    2.26
  -3  -4   4   58.45    2.25
   2   4  -4   54.00    1.99
   2   4  -4   55.47    1.97
  -2  -4   4   52.44    2.05
  -2  -4   4   52.72    2.06
  -2  -4   4   54.75    2.04
   1   4  -4    7.32    0.39
   1   4  -4    5.70    0.38
  -1  -4   4    6.00    0.50
  -1  -4   4    5.58    0.46
   0   4  -4   13.86    0.66
   0   4  -4   13.69    0.68
   0  -4   4   13.50    0.75
   0  -4   4   14.26    0.78
  -1   4  -4    1.21    0.21
  -1   4  -4    1.02    0.22
   1  -4   4    0.79    0.29
   1  -4   4    0.89    0.30
  -2   4  -4    2.11    0.31
  -2   4  -4    2.64    0.31
   2  -4   4    2.52    0.43
   2  -4   4    2.15    0.42
  -3   4  -4    0.18    0.16
  -3   4  -4    0.23    0.16
   3  -4   4   -0.03    0.30
   3  -4   4    0.65    0.33
  -4   4  -4    9.73    0.78
   4  -4   4    9.73    0.80
   4  -4   4   10.06    0.82
   5  -4   4    0.25    0.42
   5  -4   4    0.47    0.41
   5  -4   4    0.33    0.35
   6  -4   4    0.01    0.40
   6  -4   4    0.88    0.47
   6  -4   4    0.28    0.48
   7  -4   4   -0.30    0.40
   7  -4   4    1.03    0.52
   7  -4   4    0.37    0.48
   8  -4   4    0.99    0.63
   8  -4   4    0.38    0.65
   9  -4   4    0.20    0.75
   9  -4   4    0.11    0.68
 -12  -3   4    1.15    0.61
 -12  -3   4    1.38    0.70
 -12  -3   4    6.37    3.03
 -11  -3   4    2.62    0.63
 -11  -3   4    2.70    2.95
 -11  -3   4    3.17    0.66
 -10  -3   4    2.08    0.54
 -10  -3   4    1.49    0.53
 -10  -3   4    1.64    2.22
  -9  -3   4    4.74    0.64
  -9  -3   4    6.35    0.73
  -8  -3   4    0.44    0.32
  -8  -3   4    0.00    1.34
  -8  -3   4   -0.08    0.31
  -7  -3   4   40.12    1.70
  -7  -3   4   38.08    1.69
  -7  -3   4   43.66    4.17
   6   3  -4    2.38    0.28
  -6  -3   4    1.64    0.79
  -6  -3   4    1.60    0.32
  -6  -3   4    2.74    0.40
   5   3  -4    1.42    0.22
  -5  -3   4    0.76    0.56
  -5  -3   4    1.06    0.29
  -5  -3   4    1.28    0.32
   4   3  -4    2.27    0.28
  -4  -3   4    1.95    0.24
  -4  -3   4    1.90    0.30
  -4  -3   4    2.21    0.31
  -4  -3   4    1.33    0.69
   3   3  -4    0.80    0.16
   3   3  -4    1.01    0.17
  -3  -3   4    0.39    0.19
  -3  -3   4    0.42    0.20
   2   3  -4   19.21    0.80
   2   3  -4   19.50    0.82
  -2  -3   4   20.48    0.85
  -2  -3   4   18.14    0.86
  -2  -3   4   17.75    0.87
   1   3  -4    1.69    0.24
   1   3  -4    1.36    0.21
  -1  -3   4    0.74    0.15
  -1  -3   4    0.99    0.23
  -1  -3   4    1.12    0.25
   0   3  -4    3.74    0.30
   0   3  -4    3.88    0.33
   0  -3   4    4.47    0.41
   0  -3   4    4.59    0.32
   0  -3   4    3.57    0.37
  -1   3  -4   14.28    0.70
  -1   3  -4   15.54    0.73
   1  -3   4   13.97    0.77
   1  -3   4   14.57    0.79
   1  -3   4   17.20    0.74
  -2   3  -4    1.60    0.27
  -2   3  -4    2.22    0.29
   2  -3   4    1.81    0.34
   2  -3   4    1.84    0.31
  -3   3  -4    0.97    0.21
  -3   3  -4    1.06    0.23
   3  -3   4    1.12    0.33
   3  -3   4    0.85    0.26
  -4   3  -4    0.40    0.18
  -4   3  -4   -0.07    0.15
   4  -3   4    0.47    0.32
   4  -3   4   -0.07    0.28
  -5   3  -4   25.00    1.17
  -5   3  -4   24.81    1.21
   5  -3   4   24.87    1.30
   5  -3   4   24.78    1.28
  -6   3  -4    1.16    0.34
   6  -3   4    1.37    0.47
   6  -3   4    1.04    0.45
   6  -3   4    1.02    0.43
   7  -3   4    5.21    0.71
   7  -3   4    5.00    0.69
   7  -3   4    4.34    0.66
   8  -3   4    3.43    0.66
   8  -3   4    4.06    0.73
   9  -3   4    6.79    0.91
   9  -3   4    6.71    0.86
 -12  -2   4   -3.45    3.20
 -12  -2   4    1.51    0.65
 -12  -2   4    1.04    0.62
 -11  -2   4   -1.08    2.86
 -11  -2   4    1.57    0.57
 -11  -2   4    0.96    0.55
 -10  -2   4    0.84    0.47
 -10  -2   4   -0.34    0.45
 -10  -2   4    1.48    2.13
  -9  -2   4    0.85    0.40
  -9  -2   4    0.65    1.48
  -9  -2   4    0.57    0.40
  -8  -2   4    9.79    0.78
  -8  -2   4    9.39    0.72
  -8  -2   4    9.55    1.76
   7   2  -4    4.78    0.50
  -7  -2   4    3.99    0.50
  -7  -2   4    5.19    0.59
   6   2  -4   31.26    1.35
  -6  -2   4   36.79    2.88
  -6  -2   4   31.72    1.41
  -6  -2   4   32.10    1.41
   5   2  -4   10.44    0.58
  -5  -2   4    9.79    0.64
  -5  -2   4   10.53    0.63
   4   2  -4   12.54    0.63
  -4  -2   4   13.17    0.70
  -4  -2   4   12.44    1.97
  -4  -2   4   12.78    0.67
   3   2  -4    5.94    0.40
  -3  -2   4    6.65    0.46
  -3  -2   4    7.10    0.42
  -3  -2   4    6.62    0.44
  -3  -2   4    6.51    1.11
   2   2  -4   55.23    2.03
  -2  -2   4   53.45    2.76
  -2  -2   4   56.27    2.06
  -2  -2   4   57.46    2.05
  -2  -2   4   57.20    2.07
   1   2  -4   10.03    0.51
   1   2  -4   10.75    0.53
  -1  -2   4   10.65    0.57
  -1  -2   4   10.32    0.57
  -1  -2   4   10.92    0.53
   0   2  -4    0.22    0.13
   0   2  -4    0.37    0.14
   0  -2   4    0.14    0.17
   0  -2   4    0.21    0.17
  -1   2  -4    8.56    0.47
  -1   2  -4    8.10    0.48
   1  -2   4    7.68    0.51
   1  -2   4    9.03    0.47
   1  -2   4    8.61    0.53
  -2   2  -4    9.21    0.53
  -2   2  -4    9.73    0.52
   2  -2   4    8.56    0.56
   2  -2   4    9.55    0.58
  -3   2  -4    6.16    0.42
  -3   2  -4    6.16    0.45
   3  -2   4    5.14    0.49
   3  -2   4    4.52    0.47
  -4   2  -4    1.99    0.30
   4  -2   4    1.73    0.33
   4  -2   4    2.06    0.38
  -5   2  -4   -0.08    0.18
  -5   2  -4    0.21    0.22
   5  -2   4    0.25    0.29
   5  -2   4    0.24    0.29
  -6   2  -4    3.38    0.44
  -6   2  -4    2.96    0.43
   6  -2   4    4.24    0.55
   6  -2   4    4.26    0.56
   6  -2   4    3.66    0.49
  -7   2  -4    1.49    0.37
  -7   2  -4    1.11    0.33
   7  -2   4    1.47    0.45
   7  -2   4    1.46    0.44
   7  -2   4    0.91    0.40
  -8   2  -4    0.81    0.37
   8  -2   4    0.00    0.41
   8  -2   4    0.54    0.42
   9  -2   4    1.24    0.55
   9  -2   4    0.79    0.53
  10  -2   4    0.30    0.60
 -12  -1   4   -0.73    3.55
 -12  -1   4    0.78    0.61
 -12  -1   4    1.42    0.63
 -11  -1   4    0.44    0.53
 -11  -1   4   -0.49    2.82
 -11  -1   4    1.05    0.56
 -10  -1   4    0.08    2.36
 -10  -1   4    2.13    0.55
 -10  -1   4    1.93    0.54
  -9  -1   4    4.50    0.64
  -9  -1   4    4.43    0.63
  -9  -1   4    7.30    1.95
   8   1  -4    0.39    0.27
  -8  -1   4    0.25    0.30
  -8  -1   4    0.68    0.32
  -8  -1   4    1.15    1.26
   7   1  -4    0.63    0.26
  -7  -1   4    0.77    0.36
  -7  -1   4    0.84    0.31
  -7  -1   4    0.26    1.17
   6   1  -4    4.54    0.44
  -6  -1   4    3.71    0.43
  -6  -1   4    5.10    0.51
   5   1  -4   27.93    1.17
  -5  -1   4   28.14    1.19
  -5  -1   4   26.04    1.18
  -5  -1   4   25.67    2.40
   4   1  -4   34.59    1.42
  -4  -1   4   35.49    1.44
  -4  -1   4   34.14    1.42
  -4  -1   4   39.51    2.50
   3   1  -4    6.06    0.41
  -3  -1   4    9.15    1.51
  -3  -1   4    5.98    0.43
  -3  -1   4    6.03    0.44
   2   1  -4   65.58    2.34
  -2  -1   4   64.53    2.37
  -2  -1   4   66.39    2.36
   1   1  -4  161.44    5.58
  -1  -1   4  161.70    5.59
  -1  -1   4  175.51    5.80
  -1  -1   4  156.55    5.59
   0   1  -4   55.20    1.97
   0   1  -4   54.06    1.95
   0  -1   4   53.81    1.99
  -1   1  -4    6.42    0.40
  -1   1  -4    6.51    0.38
   1  -1   4    6.16    0.41
   1  -1   4    6.47    0.42
  -2   1  -4    9.08    0.49
  -2   1  -4    9.39    0.51
   2  -1   4    8.14    0.52
   2  -1   4    9.19    0.53
  -3   1  -4    0.62    0.19
  -3   1  -4    0.55    0.16
   3  -1   4    0.41    0.22
   3  -1   4    0.62    0.24
  -4   1  -4    0.86    0.21
  -4   1  -4    1.22    0.23
   4  -1   4    1.61    0.34
   4  -1   4    0.78    0.27
  -5   1  -4    4.44    0.44
  -5   1  -4    5.92    0.45
   5  -1   4    3.53    0.45
   5  -1   4    3.24    0.40
  -6   1  -4    1.66    0.33
  -6   1  -4    1.12    0.28
   6  -1   4    0.96    0.32
   6  -1   4    1.59    0.38
  -7   1  -4   17.46    1.01
  -7   1  -4   17.69    0.98
   7  -1   4   18.90    1.03
   7  -1   4   19.25    1.08
   7  -1   4   18.95    1.09
  -8   1  -4   -0.35    0.27
  -8   1  -4    0.55    0.31
   8  -1   4    0.66    0.41
   8  -1   4    1.25    0.43
  -9   1  -4    0.83    0.42
  -9   1  -4    0.24    1.09
  -9   1  -4    0.09    0.32
   9  -1   4   -0.16    0.35
   9  -1   4    0.39    0.44
 -10   1  -4   -2.35    1.52
 -10   1  -4   -0.14    0.48
  10  -1   4    0.40    0.53
 -11   1  -4   -0.86    1.59
  11  -1   4    0.72    0.63
 -11   0   4   -4.74    3.02
 -11   0   4    0.15    0.50
 -11   0   4    0.14    0.59
 -10   0   4    0.69    0.48
 -10   0   4   -0.33    0.42
 -10   0   4   -1.55    2.33
  -9   0   4    2.07    0.51
  -9   0   4    2.23    0.51
   8   0  -4    0.29    0.27
  -8   0   4    0.37    0.33
  -8   0   4    0.60    0.34
   7   0  -4   11.31    0.73
  -7   0   4   10.12    0.77
  -7   0   4   11.42    0.75
   6   0  -4    4.59    0.46
  -6   0   4    5.67    0.58
  -6   0   4    5.50    0.49
   5   0  -4    3.10    0.39
  -5   0   4    3.22    0.38
  -5   0   4    2.69    0.36
   4   0  -4   14.97    0.75
  -4   0   4   15.37    0.76
  -4   0   4   15.57    0.76
   2   0  -4  159.71    5.38
  -2   0   4  156.04    5.37
  -2   0   4  155.92    5.38
   1   0  -4   13.41    0.61
  -1   0   4   13.46    0.62
  -1   0   4   12.69    0.61
   0   0  -4   29.22    1.11
   0   0   4   28.23    1.12
   0   0   4   28.85    1.12
  -1   0  -4    1.40    0.19
  -1   0  -4    2.04    0.24
   1   0   4    1.43    0.22
   1   0   4    2.09    0.25
  -2   0  -4   20.05    0.82
  -2   0  -4   20.11    0.84
   2   0   4   18.86    0.85
  -3   0  -4   85.24    3.08
  -3   0  -4   88.47    3.10
   3   0   4   88.37    3.12
   3   0   4   88.03    3.13
  -4   0  -4    2.72    0.56
  -4   0  -4    3.87    0.34
  -4   0  -4    2.42    0.29
   4   0   4    2.37    0.32
  -5   0  -4   15.61    1.89
  -5   0  -4   15.30    0.78
  -5   0  -4   15.91    0.81
   5   0   4   16.74    0.85
   5   0   4   16.85    0.84
  -7   0  -4    0.89    0.74
  -7   0  -4    0.98    0.29
  -7   0  -4    0.48    0.27
   7   0   4    0.34    0.25
   7   0   4    1.14    0.33
   7   0   4    0.66    0.31
  -8   0  -4   13.03    0.85
  -8   0  -4    9.19    1.40
  -8   0  -4   10.85    0.77
   8   0   4    9.75    0.80
   8   0   4   10.29    0.76
  -9   0  -4    1.03    0.38
  -9   0  -4    0.84    0.43
  -9   0  -4   -0.07    1.07
   9   0   4    0.65    0.42
 -10   0  -4   -0.21    0.44
 -10   0  -4    2.35    1.45
 -10   0  -4    0.87    0.41
  10   0   4   -0.21    0.43
 -11   0  -4    0.61    0.52
 -11   0  -4    0.19    0.54
 -11   0  -4    4.35    2.31
  11   0   4    0.66    0.55
  12   0   4    2.28    0.73
 -11   1   4    3.32    0.75
 -11   1   4    1.05    3.24
 -10   1   4    0.20    0.48
 -10   1   4   -0.66    0.41
  -9   1   4    0.16    0.41
  -9   1   4    1.03    0.44
   8  -1  -4    0.37    0.31
  -8   1   4    0.85    0.39
  -8   1   4    1.08    0.42
   7  -1  -4    0.17    0.24
  -7   1   4    1.72    0.39
  -7   1   4    0.41    0.30
   6  -1  -4    5.44    0.55
  -6   1   4    5.14    0.51
  -6   1   4    6.35    0.58
   5  -1  -4    1.14    0.25
  -5   1   4    1.55    0.30
  -5   1   4    1.54    0.30
   4  -1  -4   24.13    1.06
  -4   1   4   24.40    1.07
  -4   1   4   23.78    1.04
   3  -1  -4    3.87    0.36
  -3   1   4    3.00    0.32
  -3   1   4    3.80    0.36
   2  -1  -4    6.95    0.43
  -2   1   4    6.47    0.42
  -2   1   4    6.98    0.41
   1  -1  -4   67.04    2.37
   1  -1  -4   65.71    2.32
  -1   1   4   62.46    2.30
  -1   1   4   65.16    2.32
   0  -1  -4   48.43    1.76
   0  -1  -4   50.34    1.77
   0   1   4   48.41    1.77
   0   1   4   48.94    1.77
  -1  -1  -4    6.01    0.36
  -1  -1  -4    6.12    0.37
   1   1   4    6.75    0.38
   1   1   4    6.58    0.37
  -2  -1  -4   47.56    1.77
  -2  -1  -4   49.03    1.76
  -2  -1  -4   51.82    1.79
   2   1   4   48.55    1.79
   2   1   4   48.59    1.78
  -3  -1  -4    0.16    0.37
  -3  -1  -4    1.27    0.22
  -3  -1  -4    0.87    0.18
  -3  -1  -4    0.95    0.17
   3   1   4    0.74    0.17
   3   1   4    0.87    0.19
  -5  -1  -4    4.90    0.39
  -5  -1  -4    6.69    0.92
  -5  -1  -4    5.07    0.43
   5   1   4    4.79    0.43
   5   1   4    5.47    0.44
  -6  -1  -4    7.03    1.10
  -6  -1  -4    5.48    0.47
  -6  -1  -4    5.73    0.50
   6   1   4    5.41    0.48
   6   1   4    6.00    0.50
  -7  -1  -4   31.17    1.35
  -7  -1  -4   30.76    1.39
   7   1   4   29.60    1.31
   7   1   4   31.61    1.38
  -8  -1  -4    0.75    0.30
  -8  -1  -4    0.37    0.28
  -8  -1  -4    0.10    1.05
   8   1   4    0.48    0.27
   8   1   4    0.72    0.31
  -9  -1  -4   11.04    1.93
  -9  -1  -4    9.21    0.75
  -9  -1  -4    9.66    0.83
   9   1   4   10.03    0.77
 -10  -1  -4    0.52    0.42
 -10  -1  -4    0.40    0.41
 -10  -1  -4   -2.07    1.67
  10   1   4    0.46    0.42
 -11  -1  -4   -0.25    0.41
 -11  -1  -4    0.34    0.55
  11   1   4   -0.44    0.44
 -12  -1  -4    0.86    0.63
  12   1   4    1.01    0.59
 -10   2   4    0.10    0.56
   9  -2  -4    0.19    0.42
  -9   2   4   -0.18    0.38
  -9   2   4    0.92    0.54
   8  -2  -4    1.11    0.39
  -8   2   4    2.50    0.49
  -8   2   4    0.95    0.36
   7  -2  -4    0.61    0.29
  -7   2   4    1.04    0.37
  -7   2   4    1.49    0.39
   6  -2  -4    0.83    0.34
  -6   2   4    0.89    0.30
   5  -2  -4   22.34    1.10
  -5   2   4   24.58    1.10
  -5   2   4   21.81    1.05
   4  -2  -4    1.05    0.29
  -4   2   4    1.08    0.25
  -4   2   4    1.16    0.24
   3  -2  -4    9.96    0.58
  -3   2   4    9.09    0.55
  -3   2   4    9.29    0.52
   2  -2  -4   42.54    1.62
  -2   2   4   46.35    1.63
  -2   2   4   39.88    1.59
   1  -2  -4    8.10    0.40
  -1   2   4    5.63    0.39
   0  -2  -4   51.80    1.83
   0  -2  -4   50.23    1.82
   0  -2  -4   51.44    1.82
   0   2   4   50.38    1.82
   0   2   4   49.67    1.80
  -1  -2  -4    7.11    0.37
  -1  -2  -4    6.76    0.38
  -1  -2  -4    7.12    0.37
   1   2   4    7.00    0.37
   1   2   4    6.70    0.37
  -2  -2  -4    1.61    0.21
  -2  -2  -4    1.59    0.20
  -3  -2  -4  193.86    6.45
  -3  -2  -4  187.53    6.43
  -3  -2  -4  198.47    6.47
  -3  -2  -4  183.23    6.44
   3   2   4  188.29    6.45
   3   2   4  192.97    6.44
  -4  -2  -4    1.33    0.22
  -4  -2  -4    1.25    0.21
  -4  -2  -4    0.81    0.17
  -4  -2  -4    1.12    0.21
   4   2   4    1.03    0.19
   4   2   4    1.38    0.21
  -5  -2  -4   28.79    1.18
  -5  -2  -4   27.30    1.15
  -5  -2  -4   28.27    1.97
  -5  -2  -4   30.05    1.19
   5   2   4   29.42    1.18
   5   2   4   29.79    1.17
  -6  -2  -4    1.80    0.31
  -6  -2  -4    2.70    0.32
  -6  -2  -4    1.57    0.63
  -6  -2  -4    1.73    0.28
   6   2   4    1.89    0.30
   6   2   4    1.78    0.29
  -7  -2  -4    7.60    0.57
  -7  -2  -4    7.29    0.55
   7   2   4    7.27    0.55
  -8  -2  -4   28.70    3.72
  -8  -2  -4   32.36    1.40
  -8  -2  -4   32.62    1.43
   8   2   4   32.13    1.40
   8   2   4   29.00    1.32
  -9  -2  -4   24.50    1.28
  -9  -2  -4   27.51    4.10
  -9  -2  -4   24.93    1.26
   9   2   4   23.94    1.18
 -10  -2  -4    1.29    0.50
 -10  -2  -4    0.19    1.68
 -10  -2  -4    1.62    0.46
  10   2   4    1.44    0.41
 -11  -2  -4    0.10    0.44
 -11  -2  -4    0.44    0.49
  11   2   4    0.90    0.46
 -12  -2  -4    4.09    0.83
 -12  -2  -4    5.86    0.83
 -12  -2  -4    9.62    2.87
  12   2   4    5.31    0.72
   9  -3  -4    3.60    0.66
   8  -3  -4    0.36    0.35
  -8   3   4    0.71    0.40
   7  -3  -4    0.86    0.40
  -7   3   4    0.54    0.32
  -7   3   4    0.68    0.30
   6  -3  -4   17.31    1.03
  -6   3   4   17.47    0.95
  -6   3   4   18.01    1.00
   5  -3  -4    0.46    0.29
  -5   3   4   -0.04    0.19
   4  -3  -4    7.21    0.57
  -4   3   4    8.17    0.52
  -4   3   4    7.92    0.54
   3  -3  -4    1.06    0.26
  -3   3   4    1.41    0.25
  -3   3   4    1.67    0.26
   2  -3  -4    0.41    0.14
   2  -3  -4    0.23    0.16
  -2   3   4    0.40    0.16
  -2   3   4    0.14    0.14
   1  -3  -4    3.44    0.28
  -1   3   4    3.92    0.29
   0  -3  -4    1.14    0.17
   0  -3  -4    2.81    0.29
   0  -3  -4    1.40    0.19
   0   3   4    1.42    0.18
   0   3   4    1.74    0.19
  -1  -3  -4    7.59    0.41
   1   3   4    8.95    0.40
   1   3   4    9.08    0.41
  -2  -3  -4   10.25    0.44
  -2  -3  -4    7.25    0.40
   2   3   4    9.20    0.41
   2   3   4    9.63    0.42
  -3  -3  -4   25.03    0.97
  -3  -3  -4   24.49    0.95
   3   3   4   25.98    0.95
   3   3   4   25.54    0.96
  -4  -3  -4   22.07    0.90
  -4  -3  -4   22.38    0.88
   4   3   4   21.70    0.88
   4   3   4   22.65    0.88
  -5  -3  -4    8.03    0.45
  -5  -3  -4    7.84    0.45
  -5  -3  -4    7.17    0.43
  -5  -3  -4    7.94    0.46
   5   3   4    7.89    0.44
   5   3   4    7.70    0.43
  -6  -3  -4    2.63    0.31
  -6  -3  -4    1.84    0.26
  -6  -3  -4    2.04    0.70
  -6  -3  -4    3.02    0.32
  -6  -3  -4    2.92    0.36
   6   3   4    2.66    0.32
  -7  -3  -4   22.30    2.47
  -7  -3  -4   20.93    0.97
  -7  -3  -4   20.32    0.99
   7   3   4   22.49    0.98
  -8  -3  -4   41.63    1.73
  -8  -3  -4   43.49    1.72
  -8  -3  -4   42.34    3.07
   8   3   4   41.28    1.63
   8   3   4   39.81    1.68
  -9  -3  -4   13.33    0.86
  -9  -3  -4   13.27    0.81
  -9  -3  -4   12.11    1.71
   9   3   4   12.31    0.73
 -10  -3  -4    0.49    0.37
 -10  -3  -4    0.36    0.40
 -10  -3  -4    1.05    1.38
  10   3   4    0.32    0.29
 -11  -3  -4    0.07    0.43
 -11  -3  -4    0.56    0.44
 -11  -3  -4    0.19    1.98
  11   3   4    0.88    0.39
   9  -4  -4    5.77    0.93
   8  -4  -4    2.59    0.56
   7  -4  -4    1.70    0.46
   6  -4  -4   -0.49    0.30
  -6   4   4   -0.25    0.22
  -6   4   4   -0.05    0.21
   5  -4  -4   32.84    1.50
  -5   4   4   32.28    1.40
  -5   4   4   31.60    1.43
   4  -4  -4    5.90    0.63
  -4   4   4    4.53    0.45
  -4   4   4    4.17    0.40
   3  -4  -4   38.02    1.53
  -3   4   4   35.15    1.46
  -3   4   4   37.36    1.46
   2  -4  -4    0.25    0.19
   2  -4  -4    0.19    0.12
   2  -4  -4    0.28    0.13
  -2   4   4    0.42    0.16
  -2   4   4    0.32    0.15
   1  -4  -4    1.34    0.22
   1  -4  -4    1.41    0.20
  -1   4   4    1.61    0.21
  -2  -4  -4    2.82    0.22
  -2  -4  -4    2.56    0.22
  -2  -4  -4    2.94    0.23
   2   4   4    2.66    0.19
   2   4   4    2.54    0.17
  -3  -4  -4  163.57    5.58
  -3  -4  -4  174.55    5.59
  -3  -4  -4  163.38    5.58
  -3  -4  -4  162.80    5.58
   3   4   4  165.60    5.56
  -4  -4  -4   25.95    1.01
  -4  -4  -4   27.27    1.01
  -4  -4  -4   26.75    1.02
  -4  -4  -4   27.33    1.03
   4   4   4   26.24    0.99
  -5  -4  -4    8.26    0.43
  -5  -4  -4    8.35    0.45
  -5  -4  -4    8.32    0.45
  -5  -4  -4    8.92    0.46
   5   4   4    8.06    0.42
  -6  -4  -4    0.08    0.03
  -7  -4  -4    9.10    0.57
  -7  -4  -4    9.09    0.57
   7   4   4   10.61    0.54
   7   4   4    9.27    0.50
  -8  -4  -4   41.31    3.79
  -8  -4  -4   43.57    1.72
  -8  -4  -4   43.92    1.74
   8   4   4   42.88    1.63
  -9  -4  -4   10.45    0.74
  -9  -4  -4   10.72    0.70
  -9  -4  -4    9.44    1.62
   9   4   4   10.17    0.61
 -10  -4  -4    1.04    1.37
 -10  -4  -4    1.40    0.42
 -10  -4  -4    1.07    0.43
  10   4   4    1.60    0.33
 -11  -4  -4    1.04    0.45
 -11  -4  -4    1.29    1.66
 -11  -4  -4   -0.77    0.39
  11   4   4    0.62    0.32
   9  -5  -4    1.79    0.75
   8  -5  -4    2.02    0.70
   7  -5  -4    0.16    0.39
   6  -5  -4    0.86    0.39
   5  -5  -4    0.45    0.39
   4  -5  -4    0.28    0.27
  -4   5   4    0.81    0.24
  -4   5   4    0.77    0.23
   3  -5  -4    0.11    0.23
  -3   5   4    0.44    0.16
  -3   5   4    0.20    0.15
   2  -5  -4    0.74    0.14
   2  -5  -4    0.49    0.25
   2  -5  -4    0.94    0.17
  -2   5   4    0.75    0.17
  -2   5   4    0.54    0.18
   1  -5  -4    9.36    0.51
   1  -5  -4   10.59    0.53
   1  -5  -4    9.80    0.56
  -1   5   4    9.77    0.51
  -1   5   4    9.93    0.49
   0  -5  -4    1.30    0.20
   0  -5  -4    1.20    0.19
   0  -5  -4    1.75    0.23
   0   5   4    1.82    0.17
  -1  -5  -4    0.09    0.12
  -1  -5  -4    0.15    0.11
  -2  -5  -4   14.79    0.67
  -2  -5  -4   18.75    0.69
  -2  -5  -4   18.59    0.68
  -3  -5  -4   49.10    1.73
  -3  -5  -4   50.74    1.73
  -3  -5  -4   48.96    1.73
  -4  -5  -4    3.29    0.23
  -4  -5  -4    2.90    0.22
  -4  -5  -4    2.83    0.22
  -4  -5  -4    3.64    0.22
  -5  -5  -4   17.67    0.70
  -5  -5  -4   17.47    0.70
  -5  -5  -4   15.72    0.68
  -5  -5  -4   15.26    0.66
  -6  -5  -4    0.26    0.14
  -6  -5  -4    0.13    0.15
  -6  -5  -4   -0.19    0.11
  -6  -5  -4    0.14    0.12
  -7  -5  -4    7.03    0.42
  -7  -5  -4    6.03    0.41
  -7  -5  -4    6.54    0.46
  -7  -5  -4    6.71    0.44
   7   5   4    6.26    0.36
  -8  -5  -4  127.96    4.49
  -8  -5  -4  125.46    4.50
   8   5   4  130.56    4.39
  -9  -5  -4    2.78    0.41
  -9  -5  -4    2.81    0.40
   9   5   4    2.89    0.31
 -10  -5  -4   36.84    1.65
 -10  -5  -4   38.49    1.65
  10   5   4   37.07    1.48
 -11  -5  -4    1.45    0.48
 -11  -5  -4    1.92    0.49
  11   5   4    1.02    0.30
   8  -6  -4   -0.60    0.55
   7  -6  -4    0.61    0.61
   6  -6  -4    0.46    0.41
   5  -6  -4    0.02    0.33
   4  -6  -4    1.86    0.44
   3  -6  -4    1.05    0.33
   2  -6  -4   -0.11    0.21
  -2   6   4    0.19    0.09
  -2   6   4    0.15    0.10
   1  -6  -4    1.77    0.28
  -1   6   4    2.11    0.19
   0  -6  -4    0.06    0.15
   0  -6  -4   -0.05    0.09
   0  -6  -4    0.10    0.12
   0   6   4    0.24    0.09
  -1  -6  -4    1.93    0.23
  -1  -6  -4    2.06    0.22
  -1  -6  -4    1.61    0.22
  -2  -6  -4    2.03    0.20
  -2  -6  -4    2.09    0.20
  -3  -6  -4    0.31    0.10
  -4  -6  -4   14.73    0.57
  -5  -6  -4    1.60    0.17
  -5  -6  -4    1.43    0.16
  -6  -6  -4    6.04    0.35
  -6  -6  -4    5.61    0.36
  -6  -6  -4    5.88    0.35
  -6  -6  -4    6.02    0.36
   6   6   4    6.19    0.26
  -7  -6  -4    0.18    0.15
  -7  -6  -4    0.31    0.17
  -7  -6  -4    0.35    0.15
  -7  -6  -4    0.33    0.17
   7   6   4    0.59    0.11
  -8  -6  -4   28.17    1.18
  -8  -6  -4   28.28    1.19
   8   6   4   29.03    1.06
  -9  -6  -4   16.26    0.84
  -9  -6  -4   14.95    0.85
   9   6   4   16.49    0.68
 -10  -6  -4    0.47    0.31
 -10  -6  -4    0.45    0.31
 -11  -6  -4    2.23    0.48
 -11  -6  -4    0.81    0.40
 -12  -6  -4   -0.03    0.44
 -12  -6  -4    0.74    0.45
 -13  -6  -4    1.18    0.55
 -13  -6  -4    1.63    0.60
   7  -7  -4    3.35    0.73
   6  -7  -4    3.27    0.65
   5  -7  -4    6.90    0.84
   4  -7  -4    0.21    0.38
   3  -7  -4    0.05    0.28
   2  -7  -4    4.94    0.51
   1  -7  -4    0.00    0.21
   0  -7  -4    0.44    0.21
   0  -7  -4    0.30    0.14
  -1  -7  -4    0.60    0.16
  -1  -7  -4    0.09    0.12
  -1  -7  -4    0.47    0.17
  -2  -7  -4    0.15    0.12
  -2  -7  -4    0.37    0.14
  -3  -7  -4   20.73    0.77
   4   7   4    5.90    0.26
  -5  -7  -4    5.45    0.26
  -5  -7  -4    5.33    0.27
  -6  -7  -4   -0.13    0.11
  -6  -7  -4   -0.09    0.11
  -7  -7  -4    0.73    0.18
  -7  -7  -4    0.79    0.17
  -7  -7  -4    0.73    0.18
  -7  -7  -4    0.74    0.19
  -8  -7  -4   23.22    1.03
  -8  -7  -4   25.69    1.03
  -9  -7  -4    2.19    0.34
  -9  -7  -4    2.31    0.34
 -10  -7  -4   14.72    0.83
 -10  -7  -4   13.30    0.82
 -11  -7  -4   -0.34    0.32
 -11  -7  -4    0.13    0.34
 -12  -7  -4    0.03    0.42
 -12  -7  -4    0.25    0.38
 -13  -7  -4    3.95    0.69
 -13  -7  -4    2.13    0.60
   6  -8  -4   -0.52    0.58
   5  -8  -4    0.38    0.48
   4  -8  -4    1.65    0.54
   3  -8  -4    0.83    0.42
   2  -8  -4    0.31    0.33
   1  -8  -4    0.83    0.31
   0  -8  -4    2.38    0.34
  -1  -8  -4    8.15    0.63
  -1  -8  -4    6.01    0.45
  -2  -8  -4   34.20    1.27
  -2  -8  -4   34.32    1.27
  -2  -8  -4   32.11    1.27
  -3  -8  -4    1.99    0.20
  -6  -8  -4    1.17    0.13
  -7  -8  -4    0.18    0.13
  -7  -8  -4    0.27    0.14
  -8  -8  -4    0.22    0.18
  -8  -8  -4    0.20    0.20
  -9  -8  -4   17.97    0.84
  -9  -8  -4   17.40    0.84
 -10  -8  -4    0.03    0.28
 -10  -8  -4    0.39    0.29
 -11  -8  -4    2.96    0.47
 -11  -8  -4    1.68    0.42
 -12  -8  -4   -0.32    0.39
 -12  -8  -4   -0.28    0.37
 -13  -8  -4   -0.21    0.44
 -13  -8  -4   -0.25    0.49
   5  -9  -4    0.89    0.61
   4  -9  -4    0.33    0.53
   3  -9  -4    0.28    0.41
   2  -9  -4    1.05    0.40
   1  -9  -4    2.93    0.47
   0  -9  -4    2.43    0.38
  -1  -9  -4    3.28    0.37
  -2  -9  -4    2.78    0.31
  -3  -9  -4   29.20    1.10
  -4  -9  -4   11.85    0.48
  -7  -9  -4    8.89    0.40
  -8  -9  -4    0.96    0.18
  -8  -9  -4    0.98    0.20
  -9  -9  -4    0.41    0.23
 -10  -9  -4    6.10    0.55
 -10  -9  -4    6.02    0.53
 -11  -9  -4    0.37    0.33
 -11  -9  -4    0.70    0.36
 -12  -9  -4    0.34    0.38
 -12  -9  -4    0.03    0.40
 -13  -9  -4    0.46    0.51
 -13  -9  -4   -0.05    0.44
   4 -10  -4    0.44    0.59
   3 -10  -4    1.33    0.59
   2 -10  -4    0.73    0.45
   1 -10  -4    2.30    0.47
   0 -10  -4    3.52    0.49
  -1 -10  -4    0.47    0.28
  -2 -10  -4    3.63    0.38
  -4 -10  -4   28.69    1.06
  -9 -10  -4    7.33    0.48
 -10 -10  -4    2.34    0.36
 -11 -10  -4    1.69    0.41
 -12 -10  -4    0.33    0.41
 -12 -10  -4    0.21    0.37
 -13 -10  -4    0.15    0.44
 -13 -10  -4    0.69    0.51
   2 -11  -4    4.19    0.71
   1 -11  -4    0.46    0.45
   0 -11  -4   -0.01    0.37
  -1 -11  -4    0.66    0.36
  -2 -11  -4    0.35    0.28
 -10 -11  -4    2.33    0.33
 -11 -11  -4    0.06    0.33
 -12 -11  -4   -0.39    0.39
   1 -12  -4    4.13    0.73
   0 -12  -4    0.14    0.46
  -1 -12  -4   -0.50    0.36
  -2 -12  -4    0.58    0.36
 -11 -12  -4   13.63    0.74
  -2 -13  -4    0.47    0.44
  -6 -10   5    1.41    0.67
  -6 -10   5    1.09    0.67
  -5 -10   5    1.81    0.71
  -5 -10   5    1.50    0.74
  -4 -10   5    2.45    0.75
  -4 -10   5    2.34    0.73
  -3 -10   5    5.59    0.92
  -3 -10   5    4.10    0.87
  -8  -9   5   -0.33    0.57
  -8  -9   5    0.79    0.57
  -7  -9   5    1.43    0.64
  -7  -9   5    3.14    0.66
  -6  -9   5    1.90    0.60
  -6  -9   5    1.38    0.60
  -5  -9   5    0.29    0.55
  -5  -9   5    0.86    0.55
  -4  -9   5    2.07    0.62
  -4  -9   5    1.52    0.62
  -3  -9   5    3.55    0.71
  -3  -9   5    3.74    0.74
  -2  -9   5    4.25    0.78
  -2  -9   5    5.27    0.87
  -1  -9   5   11.02    1.13
  -1  -9   5   12.01    1.21
   0  -9   5    0.28    0.83
   0  -9   5    0.41    0.67
   0  -9   5    0.08    0.64
   1  -9   5    3.90    0.88
   1  -9   5    5.12    0.97
   1  -9   5    7.06    1.02
 -10  -8   5    0.43    0.60
 -10  -8   5    0.38    0.57
  -9  -8   5   -0.12    0.47
  -9  -8   5    0.71    0.59
  -8  -8   5    0.56    0.57
  -8  -8   5    1.25    0.52
  -7  -8   5    0.39    0.46
  -7  -8   5    0.69    0.53
  -6  -8   5    0.02    0.43
  -6  -8   5   -0.96    0.44
  -5  -8   5    0.02    0.39
  -5  -8   5   -0.21    0.41
  -4  -8   5    2.48    0.60
  -4  -8   5    1.50    0.54
  -3  -8   5   10.70    1.00
  -3  -8   5   10.94    0.99
  -2  -8   5   12.26    1.05
  -2  -8   5   12.46    1.04
  -1  -8   5    2.00    0.59
  -1  -8   5    2.06    0.61
   0  -8   5    0.05    0.55
   0  -8   5    0.59    0.55
   1  -8   5    0.88    0.60
   1  -8   5    0.98    0.67
   1  -8   5    0.82    0.58
   2  -8   5   16.87    1.43
   2  -8   5   16.55    1.39
   2  -8   5   18.41    1.57
   3  -8   5    2.72    0.89
   3  -8   5    5.12    1.03
   3  -8   5    4.96    0.94
 -10  -7   5    0.38    0.55
 -10  -7   5    0.19    0.51
  -9  -7   5    5.18    0.73
  -9  -7   5    4.72    0.74
  -8  -7   5    3.81    0.65
  -8  -7   5    3.97    0.62
  -7  -7   5    0.77    0.44
  -7  -7   5    0.81    0.49
  -6  -7   5    1.17    0.43
  -6  -7   5    1.55    0.49
  -5  -7   5    0.83    0.40
  -5  -7   5    0.98    0.46
  -4  -7   5    2.40    0.50
  -4  -7   5    0.89    0.40
  -3  -7   5    8.00    0.78
  -3  -7   5    8.53    0.81
  -2  -7   5    0.42    0.38
  -2  -7   5    0.36    0.41
  -1  -7   5    1.00    0.45
  -1  -7   5   -0.07    0.40
   0  -7   5    0.01    0.42
   0  -7   5    0.28    0.46
   1  -7   5    0.89    0.52
   1  -7   5    0.96    0.48
   2  -7   5    0.71    0.53
   2  -7   5    0.46    0.52
   3  -7   5    1.43    0.64
   3  -7   5    1.64    0.66
   3  -7   5    2.77    0.81
   4  -7   5    0.84    0.63
   4  -7   5   -0.71    0.61
   4  -7   5   -0.89    0.69
 -11  -6   5    4.07    0.80
 -11  -6   5    3.62    0.76
 -10  -6   5    2.88    0.69
 -10  -6   5    4.00    0.73
  -9  -6   5    3.47    0.62
  -9  -6   5    3.48    0.69
  -8  -6   5   15.38    1.05
  -8  -6   5   13.59    1.02
  -7  -6   5    3.56    0.55
  -7  -6   5    2.81    0.55
  -6  -6   5    3.78    0.56
  -6  -6   5    3.69    0.52
  -5  -6   5    1.25    0.40
  -5  -6   5    0.80    0.39
  -4  -6   5    0.37    0.36
  -4  -6   5    0.13    0.30
  -3  -6   5   -0.39    0.26
  -3  -6   5   -0.22    0.33
  -2  -6   5    2.90    0.49
  -2  -6   5    3.19    0.51
  -1  -6   5    0.33    0.32
  -1  -6   5    0.45    0.37
   0  -6   5    2.38    0.50
   0  -6   5    2.84    0.50
   1  -6   5    0.44    0.41
   1  -6   5    0.66    0.41
   2  -6   5    0.22    0.41
   2  -6   5    0.02    0.44
   3  -6   5    1.68    0.60
   3  -6   5    1.65    0.59
   4  -6   5   -0.13    0.54
   4  -6   5    0.82    0.59
   4  -6   5   -0.61    0.53
   5  -6   5   -0.25    0.57
   5  -6   5    0.63    0.69
   5  -6   5   -0.31    0.57
   6  -6   5    2.87    0.82
   6  -6   5    2.87    0.83
   6  -6   5    2.04    0.74
  -8  -5   5    3.39    0.55
  -8  -5   5    3.30    0.57
  -7  -5   5   32.62    1.52
  -7  -5   5   30.95    1.51
  -6  -5   5   12.36    0.83
  -6  -5   5   10.78    0.80
  -5  -5   5    7.81    0.66
  -5  -5   5    7.43    0.66
  -4  -5   5    1.52    0.37
  -3  -5   5    2.08    0.42
  -3  -5   5    2.63    0.44
  -2  -5   5    5.00    0.54
  -2  -5   5    4.46    0.50
  -1  -5   5    0.14    0.27
  -1  -5   5   -0.08    0.29
   0  -5   5    1.17    0.37
   0  -5   5    1.62    0.43
   1  -5   5    2.12    0.45
   1  -5   5    1.80    0.44
   2  -5   5    0.44    0.36
   2  -5   5    0.28    0.37
   3  -5   5    0.80    0.39
   3  -5   5    1.22    0.47
   4  -5   5    0.94    0.51
   4  -5   5    0.64    0.45
   5  -5   5    1.68    0.59
   5  -5   5    2.11    0.66
   5  -5   5    1.53    0.59
   6  -5   5    0.13    0.60
   6  -5   5    0.31    0.61
   6  -5   5    0.06    0.53
   7  -5   5    1.51    0.78
   7  -5   5   -0.36    0.63
   7  -5   5    0.08    0.63
 -10  -4   5    2.09    2.13
 -10  -4   5    1.05    0.53
 -10  -4   5    0.53    0.48
  -9  -4   5    0.28    1.73
  -9  -4   5    1.27    0.45
  -9  -4   5    1.11    0.49
  -8  -4   5    3.87    1.46
  -8  -4   5    4.07    0.59
  -8  -4   5    3.96    0.58
  -7  -4   5    8.12    0.73
  -7  -4   5    8.77    0.72
  -7  -4   5    7.38    1.43
  -6  -4   5    3.37    1.01
  -6  -4   5    4.22    0.52
  -6  -4   5    5.95    0.62
  -5  -4   5   21.46    1.05
  -5  -4   5   18.55    1.01
  -4  -4   5   11.80    0.73
  -4  -4   5   11.90    0.75
   3   4  -5    0.11    0.09
   3   4  -5    0.38    0.10
  -3  -4   5    0.47    0.27
  -3  -4   5    0.42    0.26
  -2  -4   5    1.01    0.27
  -2  -4   5    1.28    0.32
   1   4  -5    4.46    0.33
   1   4  -5    4.84    0.37
  -1  -4   5    4.61    0.52
  -1  -4   5    4.72    0.48
   0   4  -5    2.71    0.34
   0   4  -5    2.51    0.31
   0  -4   5    2.65    0.42
   0  -4   5    2.54    0.41
  -1   4  -5    0.31    0.13
  -1   4  -5    0.31    0.15
   1  -4   5    0.22    0.28
   1  -4   5    0.30    0.28
  -2   4  -5    0.32    0.17
   2  -4   5    0.67    0.34
   2  -4   5    0.57    0.31
   3  -4   5    2.20    0.47
   3  -4   5    2.79    0.53
   4  -4   5   11.39    0.91
   4  -4   5   11.69    0.92
   5  -4   5    3.08    0.61
   5  -4   5    4.54    0.68
   6  -4   5    8.94    0.95
   6  -4   5    6.48    0.81
   6  -4   5    8.23    0.90
   7  -4   5   -0.41    0.49
   7  -4   5   -0.96    0.50
   7  -4   5    0.04    0.52
   8  -4   5    1.69    0.70
   8  -4   5    1.29    0.67
 -12  -3   5    5.57    3.29
 -12  -3   5    0.67    0.62
 -12  -3   5   -0.02    0.62
 -11  -3   5    1.90    0.65
 -11  -3   5    2.46    2.79
 -11  -3   5    1.62    0.61
 -10  -3   5   -1.04    2.47
 -10  -3   5    0.33    0.50
 -10  -3   5   -0.51    0.44
  -9  -3   5    0.05    0.36
  -9  -3   5    2.44    1.97
  -9  -3   5    0.85    0.46
  -8  -3   5   15.90    2.33
  -8  -3   5   14.78    0.99
  -8  -3   5   13.84    0.96
  -7  -3   5    1.75    0.41
  -7  -3   5    1.52    1.19
  -7  -3   5    2.30    0.43
  -6  -3   5   67.05    2.74
  -6  -3   5   70.13    2.75
  -6  -3   5   78.84    4.20
   5   3  -5    1.49    0.24
  -5  -3   5    0.90    0.78
  -5  -3   5    2.03    0.36
  -5  -3   5    1.81    0.35
   4   3  -5    3.04    0.35
  -4  -3   5    2.03    0.34
  -4  -3   5    2.68    0.38
  -4  -3   5    0.94    0.78
   3   3  -5    4.23    0.33
   3   3  -5    4.37    0.34
   3   3  -5    3.57    0.29
  -3  -3   5    3.30    0.39
   2   3  -5    4.86    0.36
  -2  -3   5    4.61    0.46
   1   3  -5   44.34    1.68
   1   3  -5   44.60    1.70
  -1  -3   5   44.07    1.76
  -1  -3   5   44.18    1.75
   0   3  -5    0.55    0.18
   0   3  -5    0.43    0.17
   0  -3   5    0.64    0.25
  -1   3  -5    0.55    0.18
  -1   3  -5    0.23    0.16
   1  -3   5    0.47    0.26
   1  -3   5    0.39    0.25
  -2   3  -5    2.84    0.36
  -2   3  -5    2.03    0.32
   2  -3   5    2.24    0.43
   2  -3   5    2.36    0.41
  -3   3  -5    1.49    0.29
  -3   3  -5    1.38    0.29
   3  -3   5    1.81    0.42
   3  -3   5    0.94    0.35
  -4   3  -5    0.15    0.19
  -4   3  -5    0.33    0.17
   4  -3   5    0.04    0.32
   4  -3   5    0.26    0.28
  -5   3  -5    4.54    0.52
   5  -3   5    5.08    0.65
   5  -3   5    5.37    0.63
   6  -3   5   -0.42    0.34
   6  -3   5   -0.24    0.38
   6  -3   5    0.45    0.43
   7  -3   5    2.90    0.67
   7  -3   5    2.37    0.60
   7  -3   5    2.55    0.64
   8  -3   5    0.47    0.55
   8  -3   5    1.19    0.54
   9  -3   5    0.10    0.66
 -12  -2   5    0.73    0.64
 -12  -2   5    0.24    0.63
 -11  -2   5   -0.20    0.50
 -11  -2   5    0.44    0.62
 -10  -2   5    1.62    0.55
 -10  -2   5    3.31    2.71
 -10  -2   5    2.47    0.60
  -9  -2   5    0.01    0.45
  -9  -2   5    1.48    1.95
  -9  -2   5    0.98    0.48
  -8  -2   5    0.33    0.41
  -8  -2   5    0.52    1.42
  -8  -2   5    0.47    0.38
   5   2  -5   21.07    1.01
  -5  -2   5   22.15    1.09
  -5  -2   5   28.31    2.82
  -5  -2   5   21.66    1.07
   3   2  -5    1.81    0.26
  -3  -2   5    1.85    0.31
  -3  -2   5    1.58    0.27
  -3  -2   5    1.04    0.48
   2   2  -5    9.01    0.49
   2   2  -5    8.65    0.51
  -2  -2   5    8.19    0.57
  -2  -2   5    9.22    0.57
   1   2  -5    3.33    0.31
   1   2  -5    2.97    0.27
  -1  -2   5    2.28    0.32
  -1  -2   5    2.35    0.29
   0   2  -5    0.35    0.15
   0   2  -5    0.71    0.18
   0  -2   5    0.20    0.21
   0  -2   5    0.20    0.19
  -1   2  -5    0.15    0.13
  -1   2  -5   -0.10    0.14
   1  -2   5    0.04    0.20
   1  -2   5    0.12    0.19
  -2   2  -5    8.29    0.50
  -2   2  -5    7.94    0.51
   2  -2   5    7.61    0.57
   2  -2   5    7.50    0.57
  -3   2  -5   -0.07    0.16
  -3   2  -5    0.09    0.16
   3  -2   5   -0.20    0.24
   3  -2   5   -0.02    0.23
  -4   2  -5    2.30    0.38
  -4   2  -5    2.76    0.36
   4  -2   5    2.53    0.41
   4  -2   5    3.41    0.50
  -5   2  -5   20.03    1.06
  -5   2  -5   21.69    1.05
   5  -2   5   22.01    1.15
   5  -2   5   20.72    1.12
  -6   2  -5    0.79    0.30
  -6   2  -5    0.40    0.27
   6  -2   5    0.49    0.39
   6  -2   5    0.35    0.37
  -7   2  -5    1.20    0.39
  -7   2  -5    1.01    0.35
   7  -2   5    1.45    0.50
   7  -2   5    1.68    0.50
   7  -2   5    1.44    0.44
  -8   2  -5    0.96    0.47
  -8   2  -5   -0.26    1.43
   8  -2   5    0.92    0.49
   8  -2   5    1.32    0.56
   9  -2   5   -0.78    0.47
  10  -2   5    0.58    0.66
 -11  -1   5   12.16    3.45
 -11  -1   5   12.38    1.22
 -11  -1   5   10.61    1.08
 -10  -1   5    2.32    2.58
 -10  -1   5    1.58    0.55
 -10  -1   5    1.09    0.56
  -9  -1   5    1.82    2.01
  -9  -1   5    1.68    0.53
  -9  -1   5    1.69    0.52
  -8  -1   5    2.15    0.51
  -8  -1   5    2.14    0.46
  -8  -1   5    2.93    1.63
   7   1  -5   -0.20    0.20
  -7  -1   5   -0.23    0.27
  -7  -1   5   -0.23    1.18
  -7  -1   5    0.32    0.32
   6   1  -5   59.71    2.31
  -6  -1   5   60.01    2.35
  -6  -1   5   59.63    2.36
   5   1  -5   10.97    0.65
  -5  -1   5   10.79    0.68
  -5  -1   5   10.12    0.68
   3   1  -5    1.84    0.26
  -3  -1   5    1.57    0.27
  -3  -1   5    1.65    0.28
  -3  -1   5    1.70    0.56
   2   1  -5   30.92    1.27
  -2  -1   5   31.04    1.29
  -2  -1   5   34.65    1.85
  -2  -1   5   30.84    1.30
   1   1  -5   24.83    1.00
  -1  -1   5   22.15    1.42
  -1  -1   5   23.90    1.02
  -1  -1   5   23.84    1.01
   0   1  -5   67.16    2.43
   0   1  -5   64.04    2.40
   0  -1   5   71.08    2.47
   0  -1   5   66.34    2.44
  -1   1  -5    2.41    0.29
  -1   1  -5    2.34    0.29
   1  -1   5    1.55    0.23
   1  -1   5    2.30    0.31
  -2   1  -5    0.30    0.14
  -2   1  -5    0.38    0.15
   2  -1   5    0.38    0.21
   2  -1   5    0.29    0.21
  -3   1  -5    1.44    0.26
  -3   1  -5    1.19    0.23
   3  -1   5    1.16    0.31
   3  -1   5    1.95    0.35
  -4   1  -5    1.18    0.28
  -4   1  -5    1.19    0.26
   4  -1   5    0.61    0.25
   4  -1   5    1.09    0.31
  -5   1  -5    1.00    0.30
   5  -1   5    0.57    0.27
  -6   1  -5    0.12    0.23
  -6   1  -5    0.18    0.23
   6  -1   5   -0.08    0.31
   6  -1   5    0.17    0.31
  -7   1  -5    0.17    0.24
  -7   1  -5   -0.44    0.67
  -7   1  -5    0.33    0.26
   7  -1   5   -0.12    0.29
   7  -1   5    0.14    0.33
   7  -1   5    0.13    0.33
  -8   1  -5    1.88    0.43
  -8   1  -5    0.26    0.83
  -8   1  -5    1.40    0.43
   8  -1   5    2.44    0.51
   8  -1   5    2.00    0.48
   8  -1   5    1.89    0.50
  -9   1  -5    0.05    0.56
  -9   1  -5   -0.61    0.98
  -9   1  -5   -0.09    0.39
   9  -1   5    0.21    0.47
 -10   1  -5    6.78    0.94
  10  -1   5    7.38    0.94
  11  -1   5    2.08    0.73
 -11   0   5    3.63    3.44
 -11   0   5    7.34    0.93
 -11   0   5    7.73    1.05
 -10   0   5   -1.54    2.54
 -10   0   5    0.51    0.47
 -10   0   5    0.23    0.53
  -9   0   5    0.61    0.47
  -9   0   5    1.48    2.00
  -9   0   5    1.57    0.49
   8   0  -5    3.28    0.53
  -8   0   5    3.91    0.56
  -8   0   5    3.95    0.61
   7   0  -5   26.09    1.22
  -7   0   5   22.58    1.20
  -7   0   5   23.35    1.24
   6   0  -5   18.50    0.98
  -6   0   5   19.71    1.03
  -6   0   5   18.79    1.00
   5   0  -5   59.74    2.30
  -5   0   5   59.38    2.31
  -5   0   5   60.12    2.30
   4   0  -5   31.28    1.28
  -4   0   5   29.20    1.27
  -4   0   5   29.63    1.29
   3   0  -5    4.08    0.37
  -3   0   5    2.95    0.33
  -3   0   5    2.51    0.30
   2   0  -5   25.45    1.06
  -2   0   5   25.07    1.08
  -2   0   5   25.47    1.07
   1   0  -5   21.03    0.92
  -1   0   5   21.40    0.93
  -1   0   5   22.22    0.93
   0   0  -5   89.11    3.11
   0   0   5   88.32    3.11
   0   0   5   86.59    3.12
  -1   0  -5   65.53    2.40
  -1   0  -5   68.93    2.43
   1   0   5   65.81    2.42
   1   0   5   68.02    2.44
  -2   0  -5    3.15    0.32
  -2   0  -5    3.18    0.29
   2   0   5    3.36    0.34
   2   0   5    2.30    0.29
  -3   0  -5    7.08    0.48
  -3   0  -5    7.30    0.45
   3   0   5    7.54    0.50
   3   0   5    7.47    0.50
  -4   0  -5    9.93    0.56
  -4   0  -5    8.77    0.57
   4   0   5    9.64    0.60
   4   0   5    9.91    0.62
  -5   0  -5   13.18    1.78
  -7   0  -5    0.99    0.74
  -7   0  -5    0.58    0.27
  -7   0  -5    0.22    0.28
   7   0   5    0.04    0.25
   7   0   5    0.91    0.32
  -8   0  -5   -0.16    0.27
  -8   0  -5   -0.16    0.75
  -8   0  -5    0.05    0.26
   8   0   5    0.47    0.33
   8   0   5    0.14    0.36
  -9   0  -5    0.82    0.39
  -9   0  -5    1.33    0.44
  -9   0  -5   -1.10    1.25
   9   0   5    0.87    0.43
 -10   0  -5    0.12    0.50
 -10   0  -5   -0.52    0.37
 -10   0  -5    0.03    1.64
  10   0   5    0.33    0.49
 -11   0  -5    0.67    0.59
  11   0   5   -0.16    0.50
 -11   1   5   -0.12    3.32
 -11   1   5    1.42    0.67
 -10   1   5   -0.11    0.49
 -10   1   5   -0.36    0.45
  -9   1   5    0.15    0.45
  -9   1   5    0.70    0.43
   8  -1  -5    0.09    0.31
  -8   1   5    0.08    0.39
  -8   1   5    0.12    0.34
   7  -1  -5    3.44    0.47
  -7   1   5    4.09    0.53
  -7   1   5    3.36    0.51
   6  -1  -5   27.59    1.31
  -6   1   5   28.83    1.35
  -6   1   5   27.93    1.30
   5  -1  -5   46.39    1.86
  -5   1   5   45.81    1.86
  -5   1   5   45.38    1.85
   4  -1  -5    0.30    0.20
  -4   1   5    0.35    0.23
  -4   1   5    0.21    0.21
   3  -1  -5    9.50    0.56
  -3   1   5    9.10    0.57
  -3   1   5    9.17    0.55
   2  -1  -5   14.14    0.72
  -2   1   5   15.45    0.74
  -2   1   5   15.61    0.72
   1  -1  -5   13.49    0.65
  -1   1   5   14.33    0.66
  -1   1   5   12.44    0.64
   0  -1  -5  429.66   14.15
   0   1   5  427.88   14.14
   0   1   5  411.95   14.14
  -1  -1  -5   52.88    1.95
  -1  -1  -5   53.66    1.96
   1   1   5   54.43    1.96
   1   1   5   53.93    1.97
  -2  -1  -5   35.82    1.39
  -2  -1  -5   36.55    1.41
   2   1   5   37.36    1.41
   2   1   5   36.73    1.41
  -3  -1  -5   43.80    1.65
  -3  -1  -5   43.38    1.67
   3   1   5   44.63    1.69
   3   1   5   43.88    1.67
  -4  -1  -5   13.12    1.49
  -4  -1  -5   11.22    0.62
  -4  -1  -5   10.31    0.59
   4   1   5   12.41    0.65
   4   1   5   11.44    0.62
  -5  -1  -5    5.80    0.43
  -5  -1  -5    5.40    0.76
  -5  -1  -5    4.77    0.45
   5   1   5    5.35    0.46
   5   1   5    5.62    0.47
  -6  -1  -5   16.77    0.87
  -6  -1  -5   15.23    2.57
  -6  -1  -5   15.26    0.81
   6   1   5   16.15    0.86
   6   1   5   17.00    0.88
  -7  -1  -5    0.55    0.91
  -7  -1  -5    0.06    0.24
  -7  -1  -5    0.17    0.25
   7   1   5    0.17    0.25
   7   1   5   -0.10    0.24
  -8  -1  -5    4.47    1.40
  -8  -1  -5    4.82    0.56
  -8  -1  -5    4.41    0.55
   8   1   5    4.11    0.53
   8   1   5    4.13    0.56
  -9  -1  -5    0.98    1.35
  -9  -1  -5    1.08    0.44
  -9  -1  -5    1.47    0.41
   9   1   5    0.91    0.39
 -10  -1  -5    3.47    2.01
 -10  -1  -5    4.73    0.72
 -10  -1  -5    3.89    0.62
  10   1   5    3.21    0.59
  -9   2   5    0.21    0.43
   8  -2  -5    0.80    0.32
  -8   2   5    1.75    0.42
  -8   2   5    0.68    0.38
   7  -2  -5    0.84    0.39
  -7   2   5    1.01    0.36
  -7   2   5    1.07    0.34
   6  -2  -5    2.77    0.47
  -6   2   5    2.27    0.41
  -6   2   5    2.61    0.44
   5  -2  -5    3.07    0.43
  -5   2   5    3.62    0.48
  -5   2   5    3.07    0.41
   4  -2  -5    8.47    0.60
  -4   2   5    7.20    0.54
  -4   2   5    8.55    0.58
   3  -2  -5    0.24    0.18
  -3   2   5   -0.13    0.14
   1  -2  -5   53.22    2.00
   1  -2  -5   57.97    2.07
  -1   2   5   54.69    1.99
  -1   2   5   50.78    1.97
   0  -2  -5    7.36    0.44
   0  -2  -5    7.23    0.41
   0   2   5    7.48    0.43
   0   2   5    6.76    0.42
  -1  -2  -5   21.18    0.88
  -1  -2  -5   21.86    0.88
  -1  -2  -5   21.09    0.87
   1   2   5   20.67    0.87
   1   2   5   20.87    0.87
  -2  -2  -5    7.14    0.40
  -2  -2  -5    7.39    0.41
  -2  -2  -5    8.02    0.43
  -2  -2  -5    6.67    0.40
  -2  -2  -5    6.94    0.42
   2   2   5    6.55    0.40
   2   2   5    6.83    0.39
  -3  -2  -5   13.11    0.63
  -3  -2  -5   14.33    0.65
  -3  -2  -5   14.24    0.66
  -3  -2  -5   13.60    0.64
   3   2   5   13.45    0.63
   3   2   5   12.90    0.64
  -4  -2  -5   24.35    0.97
  -4  -2  -5   22.33    0.94
  -4  -2  -5   22.00    0.97
   4   2   5   21.53    0.96
   4   2   5   23.22    0.96
  -5  -2  -5    1.84    0.30
  -5  -2  -5    1.95    0.67
  -5  -2  -5    2.10    0.29
  -5  -2  -5    2.00    0.27
   5   2   5    1.40    0.25
   5   2   5    1.99    0.30
  -6  -2  -5    1.27    0.76
  -6  -2  -5    1.07    0.26
  -6  -2  -5    0.93    0.26
   6   2   5    1.01    0.25
   6   2   5    1.24    0.26
  -7  -2  -5    0.89    0.29
  -7  -2  -5    0.42    0.75
  -7  -2  -5    1.03    0.29
   7   2   5    0.72    0.23
   7   2   5    1.21    0.28
  -8  -2  -5    2.44    1.13
  -8  -2  -5    2.12    0.39
  -8  -2  -5    2.09    0.45
   8   2   5    1.99    0.34
   8   2   5    2.03    0.37
  -9  -2  -5   11.88    2.03
  -9  -2  -5    9.16    0.79
  -9  -2  -5    8.13    0.74
   9   2   5    8.19    0.68
 -10  -2  -5    0.84    0.43
 -10  -2  -5    0.55    0.39
 -10  -2  -5    0.14    1.77
  10   2   5    1.07    0.40
 -11  -2  -5    0.90    0.51
 -11  -2  -5    0.59    0.56
 -11  -2  -5   -0.59    2.23
  11   2   5   -0.09    0.43
   9  -3  -5    2.55    0.61
   8  -3  -5    0.47    0.38
  -8   3   5    0.55    0.38
   7  -3  -5    0.01    0.33
  -7   3   5    0.22    0.28
  -7   3   5    0.66    0.32
   6  -3  -5    8.37    0.73
  -6   3   5    8.64    0.70
  -6   3   5    9.04    0.65
   5  -3  -5   76.91    2.93
  -5   3   5   78.10    2.88
  -5   3   5   73.12    2.85
   4  -3  -5    2.53    0.37
  -4   3   5    3.72    0.42
  -4   3   5    5.00    0.48
   3  -3  -5    0.12    0.17
  -3   3   5    0.27    0.17
  -3   3   5    0.07    0.17
  -2   3   5    0.43    0.17
   1  -3  -5   28.15    1.11
   1  -3  -5   27.34    1.14
  -1   3   5   28.44    1.12
  -1   3   5   27.15    1.10
   0  -3  -5   49.96    1.83
   0  -3  -5   49.94    1.83
   0  -3  -5   52.35    1.85
   0   3   5   49.36    1.81
   0   3   5   48.77    1.82
  -1  -3  -5    4.30    0.33
  -1  -3  -5    5.25    0.33
  -1  -3  -5    4.96    0.32
   1   3   5    4.54    0.32
   1   3   5    4.71    0.31
  -2  -3  -5    2.82    0.27
  -2  -3  -5    2.67    0.25
  -2  -3  -5    2.52    0.26
   2   3   5    2.91    0.26
   2   3   5    2.77    0.24
  -3  -3  -5    3.04    0.26
  -3  -3  -5    2.94    0.28
  -3  -3  -5    3.30    0.27
  -3  -3  -5    3.11    0.27
   3   3   5    3.13    0.27
   3   3   5    3.14    0.26
  -5  -3  -5   35.49    1.42
  -5  -3  -5   35.94    1.44
  -5  -3  -5   39.27    1.47
  -5  -3  -5   39.10    1.47
   5   3   5   35.39    1.43
   5   3   5   36.87    1.42
  -6  -3  -5    0.74    0.18
  -6  -3  -5    0.16    0.19
  -6  -3  -5    0.67    0.14
  -6  -3  -5    0.36    0.19
   6   3   5    0.56    0.19
   6   3   5    0.20    0.17
  -7  -3  -5    3.45    1.19
  -7  -3  -5    4.31    0.48
  -7  -3  -5    4.07    0.41
   7   3   5    3.90    0.39
  -8  -3  -5    2.82    1.18
  -8  -3  -5    2.41    0.40
  -8  -3  -5    2.94    0.42
   8   3   5    2.36    0.40
  -9  -3  -5   -0.67    1.25
  -9  -3  -5    0.60    0.32
  -9  -3  -5    1.31    0.38
   9   3   5    1.19    0.35
 -10  -3  -5    0.18    0.36
 -10  -3  -5    3.13    1.80
 -10  -3  -5    0.13    0.33
  10   3   5    0.25    0.32
 -11  -3  -5    1.24    0.56
 -11  -3  -5    0.94    0.47
  11   3   5    0.20    0.37
   9  -4  -5    0.77    0.54
   8  -4  -5    0.60    0.51
   7  -4  -5    3.09    0.66
   6  -4  -5    0.28    0.32
  -6   4   5    0.03    0.27
   5  -4  -5    1.33    0.35
  -5   4   5    1.39    0.32
  -5   4   5    1.55    0.29
   4  -4  -5   -0.13    0.21
  -4   4   5    0.33    0.20
  -4   4   5   -0.01    0.16
   3  -4  -5    0.52    0.24
  -3   4   5    0.56    0.20
  -3   4   5    1.02    0.28
   2  -4  -5    3.05    0.37
   2  -4  -5    4.24    0.31
  -2   4   5    3.14    0.32
   1  -4  -5   14.53    0.67
   1  -4  -5   15.07    0.67
   1  -4  -5   13.17    0.70
  -1   4   5   14.21    0.65
  -1   4   5   13.71    0.67
   0  -4  -5   63.90    2.20
   0  -4  -5   58.53    2.20
   0  -4  -5   63.98    2.20
   0   4   5   58.78    2.17
   0   4   5   60.37    2.18
  -1  -4  -5    5.15    0.36
   1   4   5    4.82    0.30
   1   4   5    5.06    0.30
  -2  -4  -5   12.50    0.56
   2   4   5   13.10    0.54
   2   4   5   10.97    0.51
  -3  -4  -5    2.06    0.23
  -3  -4  -5    1.40    0.19
  -3  -4  -5    2.05    0.23
  -3  -4  -5    1.65    0.20
   3   4   5    1.86    0.19
   3   4   5    1.48    0.18
  -4  -4  -5  136.67    4.74
  -4  -4  -5  139.27    4.75
  -4  -4  -5  135.85    4.73
   4   4   5  141.28    4.71
   4   4   5  140.39    4.72
  -5  -4  -5   20.01    0.85
  -5  -4  -5   20.22    0.87
   5   4   5   19.73    0.84
   5   4   5   20.57    0.82
  -6  -4  -5    0.50    0.20
  -6  -4  -5    0.66    0.15
  -6  -4  -5    0.50    0.19
   6   4   5    0.72    0.16
  -7  -4  -5   12.50    0.72
  -7  -4  -5   13.02    0.70
   7   4   5   14.12    0.68
  -8  -4  -5   19.93    0.96
  -8  -4  -5   19.24    0.98
   8   4   5   18.52    0.87
  -9  -4  -5    4.05    0.51
  -9  -4  -5    3.07    1.34
  -9  -4  -5    4.55    0.58
   9   4   5    4.38    0.45
 -10  -4  -5    1.62    0.48
 -10  -4  -5    1.71    0.44
 -10  -4  -5    3.15    1.59
  10   4   5    1.81    0.38
 -11  -4  -5    1.50    0.55
 -11  -4  -5    4.10    1.75
 -11  -4  -5    0.79    0.47
  11   4   5    0.98    0.36
   9  -5  -5    1.07    0.63
   8  -5  -5    0.17    0.54
   7  -5  -5    0.94    0.44
   6  -5  -5    0.59    0.39
   5  -5  -5   19.19    1.12
   4  -5  -5    2.03    0.44
  -4   5   5    2.22    0.36
  -4   5   5    2.53    0.36
   3  -5  -5    2.08    0.36
  -3   5   5    2.82    0.37
  -3   5   5    2.59    0.33
   2  -5  -5   -0.02    0.22
  -2   5   5    0.24    0.14
  -2   5   5    0.22    0.13
   1  -5  -5   21.90    0.93
   1  -5  -5   22.55    0.94
   1  -5  -5   21.07    0.96
  -1   5   5   20.55    0.89
  -1   5   5   21.25    0.92
   0  -5  -5    4.17    0.38
   0   5   5    5.23    0.31
   0   5   5    5.64    0.33
  -1  -5  -5   22.02    0.89
  -1  -5  -5   20.04    0.89
  -1  -5  -5   22.41    0.89
   1   5   5   22.18    0.85
   1   5   5   22.13    0.83
  -2  -5  -5    7.22    0.40
  -2  -5  -5    7.34    0.39
  -2  -5  -5    7.38    0.40
  -3  -5  -5   14.29    0.60
  -3  -5  -5   13.69    0.59
  -3  -5  -5   13.14    0.59
  -4  -5  -5   -0.07    0.10
  -4  -5  -5    0.07    0.11
  -4  -5  -5   -0.06    0.09
  -4  -5  -5    0.04    0.12
  -5  -5  -5   16.94    0.74
  -5  -5  -5   16.37    0.73
  -5  -5  -5   16.77    0.72
  -5  -5  -5   17.47    0.74
  -6  -5  -5    3.13    0.28
  -6  -5  -5    2.71    0.31
  -6  -5  -5    2.90    0.28
  -6  -5  -5    2.18    0.27
  -7  -5  -5    8.74    0.54
  -7  -5  -5    9.18    0.56
  -8  -5  -5    7.45    0.56
  -8  -5  -5    7.61    0.55
   8   5   5    6.80    0.44
  -9  -5  -5   21.55    1.07
  -9  -5  -5   21.92    1.06
   9   5   5   20.48    0.94
 -10  -5  -5    7.00    0.67
 -10  -5  -5    7.29    0.70
  10   5   5    6.56    0.52
 -11  -5  -5    0.80    0.43
 -11  -5  -5    0.53    0.43
  11   5   5    1.35    0.34
 -12  -5  -5    0.48    0.47
 -12  -5  -5   -0.05    0.47
 -13  -5  -5    2.87    0.74
 -13  -5  -5    2.06    0.69
   8  -6  -5    0.13    0.56
   7  -6  -5    0.80    0.56
   6  -6  -5   -0.02    0.38
   5  -6  -5    0.77    0.39
   4  -6  -5   -0.04    0.29
   3  -6  -5    3.42    0.46
   2  -6  -5    0.09    0.21
  -2   6   5    0.62    0.16
  -2   6   5    0.33    0.10
   1  -6  -5    0.67    0.23
  -1   6   5    1.35    0.19
  -1   6   5    1.27    0.17
   0  -6  -5   11.84    0.67
   0  -6  -5   14.34    0.66
   0   6   5   13.60    0.60
   0   6   5   14.15    0.62
  -1  -6  -5    3.73    0.31
  -1  -6  -5    4.41    0.35
  -2  -6  -5    0.87    0.18
  -3  -6  -5   -0.10    0.10
  -3  -6  -5   -0.05    0.11
  -3  -6  -5   -0.17    0.10
  -4  -6  -5  104.57    3.47
  -4  -6  -5   99.71    3.46
  -4  -6  -5   99.86    3.47
  -5  -6  -5   49.82    1.73
  -5  -6  -5   48.01    1.74
  -5  -6  -5   46.66    1.74
  -5  -6  -5   49.52    1.76
  -6  -6  -5   28.56    1.12
  -6  -6  -5   29.07    1.13
  -6  -6  -5   28.01    1.11
  -6  -6  -5   28.43    1.12
  -7  -6  -5    6.97    0.45
  -7  -6  -5    7.10    0.48
  -7  -6  -5    8.32    0.71
  -7  -6  -5    7.62    0.46
  -8  -6  -5    5.27    0.45
  -8  -6  -5    5.08    0.46
   8   6   5    4.87    0.33
  -9  -6  -5    7.80    0.57
  -9  -6  -5    6.94    0.58
   9   6   5    7.43    0.44
 -10  -6  -5    6.37    0.60
 -10  -6  -5    6.61    0.64
  10   6   5    5.82    0.43
 -11  -6  -5    1.01    0.41
 -11  -6  -5    0.76    0.42
 -12  -6  -5    1.22    0.53
 -12  -6  -5    0.98    0.50
 -13  -6  -5   -0.21    0.51
 -13  -6  -5    0.24    0.52
   7  -7  -5    0.13    0.58
   6  -7  -5    2.15    0.68
   5  -7  -5    0.47    0.41
   4  -7  -5    0.71    0.39
   3  -7  -5   -0.13    0.31
   2  -7  -5    0.87    0.30
   1  -7  -5    0.40    0.24
   0  -7  -5   -0.08    0.18
  -1  -7  -5    2.50    0.29
  -1  -7  -5    2.44    0.31
  -1  -7  -5    2.62    0.27
  -2  -7  -5    2.78    0.28
  -2  -7  -5    2.15    0.23
  -2  -7  -5    2.13    0.26
  -3  -7  -5    3.95    0.30
  -3  -7  -5    3.69    0.27
  -4  -7  -5   10.19    0.46
  -5  -7  -5    2.10    0.21
  -5  -7  -5    2.52    0.24
  -6  -7  -5    3.67    0.29
  -6  -7  -5    3.53    0.27
  -7  -7  -5    1.72    0.24
  -7  -7  -5    1.06    0.21
  -7  -7  -5    2.11    0.27
  -7  -7  -5    1.42    0.24
  -8  -7  -5    7.38    0.51
  -8  -7  -5    7.42    0.50
   8   7   5    8.15    0.36
  -9  -7  -5   19.88    0.94
  -9  -7  -5   18.97    0.94
 -10  -7  -5    2.35    0.40
 -10  -7  -5    2.61    0.43
 -11  -7  -5    1.14    0.42
 -11  -7  -5    1.23    0.41
 -12  -7  -5    0.66    0.45
 -12  -7  -5    0.27    0.43
 -13  -7  -5    7.93    0.89
 -13  -7  -5    6.95    0.84
   6  -8  -5    1.63    0.65
   5  -8  -5   -0.07    0.47
   4  -8  -5   -0.02    0.38
   3  -8  -5   -0.13    0.35
   2  -8  -5    0.48    0.32
   1  -8  -5    3.36    0.46
   0  -8  -5    0.01    0.21
  -1  -8  -5    0.11    0.20
  -2  -8  -5   14.48    0.65
  -2  -8  -5   13.84    0.66
  -2  -8  -5   13.75    0.64
  -3  -8  -5   19.85    0.79
  -4  -8  -5    0.16    0.11
  -5  -8  -5    8.87    0.42
  -6  -8  -5   15.60    0.64
  -6  -8  -5   15.39    0.63
  -7  -8  -5    4.39    0.33
  -7  -8  -5    4.88    0.33
  -8  -8  -5   13.48    0.66
  -8  -8  -5   13.27    0.65
  -9  -8  -5    0.34    0.25
  -9  -8  -5    0.43    0.25
 -10  -8  -5   29.03    1.30
 -10  -8  -5   30.03    1.30
 -11  -8  -5    3.64    0.50
 -11  -8  -5    3.29    0.50
 -12  -8  -5    0.36    0.41
 -12  -8  -5    0.41    0.42
 -13  -8  -5    0.93    0.50
 -13  -8  -5    1.65    0.56
   5  -9  -5   -0.86    0.49
   4  -9  -5    2.32    0.62
   3  -9  -5    4.44    0.67
   2  -9  -5    0.65    0.39
   1  -9  -5   -0.07    0.29
   0  -9  -5    1.00    0.31
  -1  -9  -5    0.02    0.22
  -2  -9  -5    0.01    0.18
  -3  -9  -5    8.51    0.44
  -4  -9  -5   10.96    0.48
  -7  -9  -5    0.21    0.14
  -7  -9  -5    0.35    0.14
  -8  -9  -5    2.01    0.25
  -9  -9  -5    5.40    0.45
  -9  -9  -5    6.37    0.48
 -10  -9  -5    0.13    0.28
 -10  -9  -5    0.13    0.27
 -11  -9  -5    0.05    0.32
 -11  -9  -5    0.12    0.33
 -12  -9  -5    3.16    0.52
 -12  -9  -5    4.10    0.59
 -13  -9  -5    1.86    0.56
 -13  -9  -5    0.87    0.50
   4 -10  -5    0.35    0.61
   3 -10  -5    1.56    0.60
   2 -10  -5    0.92    0.46
   1 -10  -5    0.04    0.34
   0 -10  -5    0.68    0.35
  -1 -10  -5    0.85    0.31
  -2 -10  -5   -0.10    0.22
  -4 -10  -5    0.45    0.14
  -8 -10  -5    0.53    0.16
  -8 -10  -5    0.13    0.16
  -9 -10  -5    0.94    0.24
 -10 -10  -5    9.27    0.62
 -11 -10  -5    4.12    0.50
 -12 -10  -5    0.93    0.44
 -12 -10  -5    0.57    0.39
 -13 -10  -5    1.05    0.50
 -13 -10  -5    1.05    0.46
   3 -11  -5    0.78    0.62
   2 -11  -5    2.23    0.61
   1 -11  -5    0.45    0.44
   0 -11  -5    0.05    0.35
  -1 -11  -5    2.38    0.44
  -2 -11  -5    0.82    0.30
 -10 -11  -5    6.61    0.51
 -11 -11  -5    4.26    0.49
 -12 -11  -5   -0.27    0.38
   1 -12  -5    1.38    0.57
   0 -12  -5    0.17    0.46
  -1 -12  -5    2.91    0.51
  -2 -12  -5    2.41    0.43
 -11 -12  -5    0.31    0.30
  -1 -13  -5    0.35    0.47
  -2 -13  -5   -0.26    0.40
  -7  -9   6    4.40    0.85
  -6  -9   6    1.67    0.72
  -6  -9   6    2.32    0.70
  -5  -9   6    0.72    0.64
  -5  -9   6    0.96    0.66
  -4  -9   6    2.52    0.76
  -4  -9   6    2.61    0.74
  -3  -9   6    1.32    0.69
  -3  -9   6    1.02    0.69
  -2  -9   6    3.75    0.88
  -2  -9   6    4.01    0.84
  -1  -9   6    4.63    0.93
  -1  -9   6    4.47    0.91
  -8  -8   6    1.19    0.66
  -8  -8   6    0.79    0.58
  -7  -8   6   -0.17    0.59
  -7  -8   6   -0.09    0.50
  -6  -8   6    0.18    0.59
  -6  -8   6    1.51    0.59
  -5  -8   6    5.89    0.79
  -5  -8   6    5.34    0.79
  -4  -8   6    0.46    0.52
  -4  -8   6    0.56    0.54
  -3  -8   6    2.64    0.69
  -3  -8   6    1.68    0.61
  -2  -8   6   11.54    1.15
  -2  -8   6   12.16    1.18
  -1  -8   6    0.83    0.59
  -1  -8   6    1.31    0.68
   0  -8   6    4.68    0.84
   0  -8   6    4.88    0.82
   1  -8   6    3.87    0.88
   1  -8   6    1.98    0.76
   2  -8   6    1.10    0.78
   2  -8   6    1.18    0.74
   2  -8   6   -0.86    0.75
 -10  -7   6    3.27    0.76
  -9  -7   6    0.82    0.60
  -9  -7   6    0.62    0.59
  -8  -7   6    0.15    0.53
  -8  -7   6    0.12    0.49
  -7  -7   6   -0.22    0.44
  -7  -7   6    0.72    0.51
  -6  -7   6    3.56    0.65
  -6  -7   6    3.70    0.67
  -5  -7   6   -0.08    0.47
  -5  -7   6    0.48    0.43
  -4  -7   6    0.12    0.41
  -4  -7   6    1.31    0.49
  -3  -7   6    0.11    0.45
  -3  -7   6    0.17    0.44
  -2  -7   6    4.73    0.71
  -2  -7   6    5.23    0.73
  -1  -7   6   12.53    1.07
  -1  -7   6   11.49    1.03
   0  -7   6    5.61    0.80
   0  -7   6    4.72    0.77
   1  -7   6   -0.22    0.53
   1  -7   6    0.93    0.57
   2  -7   6    1.35    0.63
   2  -7   6    0.89    0.56
   3  -7   6   -0.13    0.60
   3  -7   6    1.03    0.82
   3  -7   6   -0.01    0.64
   4  -7   6   11.61    1.30
   4  -7   6    9.47    1.18
 -10  -6   6    2.13    0.68
 -10  -6   6    0.68    0.59
  -9  -6   6    0.72    0.53
  -9  -6   6    1.65    0.56
  -8  -6   6    2.18    0.57
  -8  -6   6    1.50    0.54
  -7  -6   6    1.11    0.50
  -7  -6   6    0.90    0.49
  -6  -6   6    0.37    0.43
  -6  -6   6    0.03    0.37
  -5  -6   6    1.14    0.47
  -5  -6   6    0.77    0.45
  -4  -6   6    1.57    0.48
  -4  -6   6    1.60    0.43
  -3  -6   6    1.58    0.45
  -3  -6   6    1.26    0.46
  -2  -6   6    6.15    0.71
  -2  -6   6    5.00    0.65
  -1  -6   6   10.15    0.89
  -1  -6   6   10.61    0.90
   0  -6   6   -0.43    0.38
   0  -6   6   -0.21    0.42
   1  -6   6    0.76    0.50
   1  -6   6    0.08    0.46
   2  -6   6    1.38    0.56
   2  -6   6    3.03    0.61
   3  -6   6    6.89    0.91
   3  -6   6    9.65    1.02
   4  -6   6    3.43    0.87
   4  -6   6    4.57    0.81
   4  -6   6    3.58    0.77
   5  -6   6    1.25    0.73
   5  -6   6    0.65    0.78
   5  -6   6    0.01    0.66
  -9  -5   6    0.30    0.50
  -9  -5   6    0.67    0.48
  -8  -5   6    3.06    0.59
  -8  -5   6    3.53    0.63
  -7  -5   6    9.37    0.86
  -7  -5   6    9.01    0.86
  -6  -5   6    3.75    0.61
  -6  -5   6    3.81    0.59
  -5  -5   6    0.57    0.40
  -5  -5   6    1.12    0.41
  -4  -5   6   28.41    1.38
  -4  -5   6   27.65    1.38
  -3  -5   6    0.69    0.33
  -3  -5   6    0.92    0.39
  -2  -5   6    6.59    0.70
  -2  -5   6    7.20    0.75
  -1  -5   6    5.79    0.63
  -1  -5   6    5.28    0.63
   0  -5   6   16.01    1.00
   0  -5   6   15.82    1.03
   1  -5   6    0.21    0.36
   1  -5   6   -0.08    0.37
   2  -5   6    0.39    0.38
   2  -5   6    0.26    0.46
   3  -5   6    2.37    0.54
   3  -5   6    3.30    0.65
   4  -5   6    5.85    0.84
   4  -5   6    5.82    0.80
   5  -5   6    2.39    0.73
   5  -5   6    1.39    0.63
   5  -5   6    2.43    0.66
   6  -5   6    1.35    0.71
   6  -5   6    1.17    0.71
   6  -5   6   -0.51    0.58
  -8  -4   6    3.94    1.33
  -8  -4   6    2.45    0.54
  -8  -4   6    2.05    0.53
  -7  -4   6    7.95    0.78
  -7  -4   6    9.82    0.85
  -6  -4   6    2.35    0.48
  -6  -4   6    2.62    0.52
  -5  -4   6    5.51    0.61
  -5  -4   6    5.27    0.57
  -4  -4   6    7.60    0.69
  -4  -4   6    8.25    0.69
  -3  -4   6   31.17    1.43
  -3  -4   6   31.21    1.44
  -2  -4   6    4.89    0.57
  -2  -4   6    4.54    0.54
  -1  -4   6    1.52    0.41
  -1  -4   6    1.93    0.38
   0  -4   6    1.89    0.38
   0  -4   6    2.43    0.45
   1  -4   6    0.80    0.37
   1  -4   6    0.50    0.34
   2  -4   6    1.06    0.45
   2  -4   6    0.94    0.41
   3  -4   6    2.43    0.55
   3  -4   6    3.28    0.57
   4  -4   6    2.01    0.55
   4  -4   6    1.97    0.49
   5  -4   6    2.59    0.59
   5  -4   6    2.43    0.63
   6  -4   6    0.18    0.53
   6  -4   6    0.30    0.57
   6  -4   6    0.40    0.54
   7  -4   6   -0.09    0.59
   7  -4   6    0.97    0.64
   7  -4   6    0.44    0.61
   8  -4   6   -0.46    0.61
   8  -4   6   -0.85    0.67
 -11  -3   6    0.08    0.65
 -11  -3   6    5.35    2.73
 -11  -3   6    1.24    0.62
 -10  -3   6    6.57    0.85
 -10  -3   6    7.21    0.93
 -10  -3   6   11.46    2.98
  -9  -3   6   -0.52    1.98
  -9  -3   6    0.70    0.50
  -9  -3   6    0.20    0.44
  -8  -3   6    0.15    0.40
  -8  -3   6   -0.20    1.55
  -8  -3   6    0.92    0.41
  -7  -3   6    1.36    0.46
  -7  -3   6    1.20    1.33
  -7  -3   6    1.79    0.44
  -6  -3   6    2.70    0.48
  -6  -3   6    2.37    1.04
  -6  -3   6    2.88    0.47
  -5  -3   6   12.95    2.21
  -5  -3   6   11.87    0.79
  -5  -3   6   10.53    0.78
   4   3  -6    5.02    0.40
  -4  -3   6    5.47    0.57
  -4  -3   6    3.83    0.47
   3   3  -6   10.91    0.60
   3   3  -6   10.68    0.60
   3   3  -6    9.72    0.55
   2   3  -6   46.67    1.82
   2   3  -6   46.67    1.78
  -2  -3   6   47.42    1.91
  -2  -3   6   46.36    1.91
   1   3  -6    4.91    0.40
   1   3  -6    4.15    0.36
  -1  -3   6    3.18    0.44
  -1  -3   6    3.86    0.49
   0   3  -6   73.73    2.71
   0   3  -6   70.04    2.66
   0  -3   6   73.88    2.77
   0  -3   6   74.38    2.79
  -1   3  -6   25.64    1.15
  -1   3  -6   25.65    1.12
   1  -3   6   25.16    1.23
   1  -3   6   26.28    1.25
  -2   3  -6    6.80    0.50
  -2   3  -6    8.33    0.55
   2  -3   6    6.80    0.64
   2  -3   6    7.34    0.66
  -3   3  -6    0.50    0.20
  -3   3  -6    0.77    0.25
   3  -3   6    0.50    0.31
   3  -3   6    0.14    0.36
  -4   3  -6   10.79    0.74
   4  -3   6   10.97    0.86
   4  -3   6   11.55    0.87
   5  -3   6    7.02    0.79
   5  -3   6    7.31    0.84
   6  -3   6    2.19    0.61
   6  -3   6    2.37    0.59
   7  -3   6    1.38    0.61
   7  -3   6    2.13    0.66
   7  -3   6    2.36    0.64
   8  -3   6    4.64    0.83
   8  -3   6    4.93    0.81
   9  -3   6    0.06    0.68
 -11  -2   6    3.69    0.78
 -11  -2   6    1.20    2.79
 -11  -2   6    2.89    0.73
 -10  -2   6   -2.18    2.74
 -10  -2   6    1.59    0.59
 -10  -2   6    2.46    0.65
  -9  -2   6    0.41    0.45
  -9  -2   6   -2.32    2.08
  -9  -2   6    0.55    0.45
  -8  -2   6    0.71    0.43
  -8  -2   6    0.34    0.39
  -8  -2   6   -1.72    1.65
  -7  -2   6    0.64    1.36
  -7  -2   6    0.25    0.32
  -7  -2   6    0.42    0.34
  -6  -2   6   10.55    0.77
  -6  -2   6   10.69    1.65
  -6  -2   6   10.94    0.79
   4   2  -6    7.74    0.52
  -4  -2   6    8.16    0.62
  -4  -2   6    7.67    0.61
   3   2  -6    0.51    0.20
  -3  -2   6    0.07    0.24
  -3  -2   6    0.45    0.24
  -3  -2   6   -0.10    0.56
   2   2  -6    2.07    0.31
   2   2  -6    2.21    0.29
   2   2  -6    1.65    0.28
  -2  -2   6    2.06    0.35
  -2  -2   6    1.86    0.33
   1   2  -6    5.05    0.41
   0   2  -6   10.97    0.59
   0   2  -6   10.14    0.59
   0  -2   6    9.59    0.66
   0  -2   6   10.99    0.67
  -1   2  -6   24.07    1.04
  -1   2  -6   24.65    1.07
   1  -2   6   22.10    1.11
   1  -2   6   23.13    1.11
  -2   2  -6   -0.03    0.17
  -2   2  -6    0.01    0.15
   2  -2   6   -0.04    0.25
   2  -2   6    0.10    0.25
  -3   2  -6   28.27    1.23
  -3   2  -6   29.06    1.27
   3  -2   6   26.71    1.32
   3  -2   6   28.18    1.35
  -4   2  -6   10.88    0.73
  -4   2  -6   11.49    0.69
   4  -2   6   11.13    0.81
   4  -2   6   11.12    0.79
  -5   2  -6    1.37    0.33
  -5   2  -6    1.19    0.32
   5  -2   6    0.51    0.39
   5  -2   6    0.69    0.39
  -6   2  -6    0.73    0.33
  -6   2  -6    0.64    0.30
   6  -2   6    1.35    0.45
   6  -2   6    0.73    0.43
  -7   2  -6    3.29    0.57
   7  -2   6    2.50    0.55
   7  -2   6    4.57    0.69
   8  -2   6    0.40    0.50
   8  -2   6    1.14    0.55
   9  -2   6    0.50    0.61
 -11  -1   6   -3.52    2.84
 -11  -1   6    0.19    0.65
 -11  -1   6    0.08    0.58
 -10  -1   6    0.47    2.70
 -10  -1   6    0.74    0.55
 -10  -1   6    1.33    0.59
  -9  -1   6    1.15    0.50
  -9  -1   6    1.36    0.52
  -9  -1   6   -0.55    2.19
  -8  -1   6    1.05    0.49
  -8  -1   6   -0.93    1.67
  -8  -1   6    1.64    0.49
  -7  -1   6    0.74    1.33
  -7  -1   6    1.04    0.38
  -7  -1   6    0.39    0.34
   6   1  -6    2.70    0.42
  -6  -1   6    2.93    1.17
  -6  -1   6    2.99    0.48
  -6  -1   6    2.31    0.43
   4   1  -6    7.09    0.52
  -4  -1   6    8.35    1.87
  -4  -1   6    7.07    0.56
  -4  -1   6    7.38    0.58
   2   1  -6    0.92    0.21
  -2  -1   6    1.39    0.53
  -2  -1   6    1.39    0.29
  -2  -1   6    1.59    0.30
   1   1  -6   11.12    0.62
   1   1  -6   11.93    0.64
   1   1  -6   11.50    0.61
  -1  -1   6   12.52    0.69
  -1  -1   6   12.14    0.69
   0   1  -6    8.82    0.53
   0   1  -6    8.38    0.50
   0  -1   6    8.03    0.56
   0  -1   6    8.68    0.57
  -1   1  -6    2.26    0.29
  -1   1  -6    1.56    0.24
   1  -1   6    1.60    0.29
  -2   1  -6    4.33    0.37
  -2   1  -6    4.15    0.41
   2  -1   6    4.62    0.47
   2  -1   6    4.43    0.47
  -3   1  -6    0.19    0.22
  -3   1  -6    0.83    0.23
   3  -1   6    0.79    0.30
   3  -1   6    0.56    0.24
  -4   1  -6    8.26    0.60
  -4   1  -6    9.50    0.60
   4  -1   6    8.16    0.65
   4  -1   6    7.55    0.64
  -5   1  -6    0.25    0.23
  -5   1  -6    0.66    0.25
   5  -1   6    0.11    0.31
   5  -1   6    0.49    0.33
  -7   1  -6    0.59    0.37
  -7   1  -6   -0.06    0.74
  -7   1  -6    0.63    0.27
   7  -1   6    0.80    0.40
   7  -1   6    0.99    0.40
  -8   1  -6    2.18    0.48
  -8   1  -6    2.59    0.52
   8  -1   6    2.24    0.60
   8  -1   6    2.04    0.56
  -9   1  -6    0.41    0.44
   9  -1   6   -0.56    0.47
  10  -1   6    3.84    0.77
 -11   0   6    0.99    0.66
 -11   0   6   -3.61    3.08
 -10   0   6    8.24    0.94
 -10   0   6    5.95    2.94
 -10   0   6    8.60    0.97
  -9   0   6   18.59    1.21
  -9   0   6   20.87    3.09
  -9   0   6   17.20    1.26
  -8   0   6    1.08    0.44
  -8   0   6    2.37    1.86
  -8   0   6    2.00    0.50
   7   0  -6    2.65    0.45
  -7   0   6    2.57    0.48
  -7   0   6    3.37    0.54
   6   0  -6   12.55    0.79
  -6   0   6   12.78    0.84
  -6   0   6   13.73    0.88
   5   0  -6    0.59    0.25
  -5   0   6    0.70    0.28
  -5   0   6    1.29    0.32
   4   0  -6   72.16    2.69
  -4   0   6   70.05    2.69
  -4   0   6   72.90    2.72
   3   0  -6    0.95    0.22
  -3   0   6    0.44    0.22
  -3   0   6    1.14    0.27
   2   0  -6    4.04    0.38
  -2   0   6    4.63    0.43
  -2   0   6    4.58    0.43
   1   0  -6    5.33    0.41
  -1   0   6    4.65    0.43
  -1   0   6    4.74    0.44
  -1   0   6    6.62    1.16
   0   0  -6   30.75    1.24
   0   0  -6   30.40    1.22
   0   0  -6   31.42    1.24
   0   0   6   27.76    1.24
   0   0   6   29.73    1.26
  -1   0  -6    1.62    0.26
  -1   0  -6    1.92    0.31
   1   0   6    1.30    0.28
  -2   0  -6   18.12    0.85
  -2   0  -6   18.20    0.84
   2   0   6   18.33    0.87
   2   0   6   17.41    0.88
  -3   0  -6    9.65    0.58
  -3   0  -6   10.51    0.62
   3   0   6   10.33    0.64
   3   0   6   10.81    0.65
  -4   0  -6   12.79    0.69
  -4   0  -6   11.30    0.68
   4   0   6   11.60    0.72
  -5   0  -6   13.19    0.79
  -5   0  -6   13.57    0.78
   5   0   6   13.10    0.79
   5   0   6   14.32    0.82
  -6   0  -6    0.09    0.84
  -6   0  -6    1.49    0.32
  -6   0  -6    0.96    0.28
   6   0   6    1.03    0.33
   6   0   6    1.45    0.37
  -7   0  -6    3.70    1.15
  -7   0  -6    4.20    0.55
  -7   0  -6    3.95    0.55
   7   0   6    4.72    0.59
   7   0   6    5.43    0.66
  -8   0  -6    1.29    0.48
  -8   0  -6    2.08    0.43
  -8   0  -6    0.12    1.10
   8   0   6    1.41    0.41
  -9   0  -6    1.80    0.49
  -9   0  -6    1.60    0.48
   9   0   6    1.31    0.50
 -10   0  -6   -0.21    0.49
 -10   0  -6    0.56    0.51
  10   0   6    0.91    0.55
 -11   0  -6   -0.49    0.52
  11   0   6    0.13    0.60
 -10   1   6    8.10    0.98
 -10   1   6    8.21    3.37
  -9   1   6   12.58    1.05
  -9   1   6   14.51    1.15
   8  -1  -6   -0.25    0.25
  -8   1   6    0.38    0.39
  -8   1   6   -0.36    0.34
   7  -1  -6    8.00    0.69
  -7   1   6    7.08    0.69
  -7   1   6    8.14    0.78
   6  -1  -6    3.57    0.50
  -6   1   6    3.26    0.48
  -6   1   6    3.86    0.53
   5  -1  -6   28.49    1.32
  -5   1   6   28.33    1.31
  -5   1   6   29.00    1.34
   4  -1  -6    7.82    0.58
  -4   1   6    7.56    0.56
  -4   1   6    7.08    0.58
   3  -1  -6    0.29    0.18
  -3   1   6   -0.03    0.18
  -3   1   6    0.30    0.23
   2  -1  -6    5.48    0.46
  -2   1   6    6.32    0.46
  -2   1   6    5.79    0.47
   1  -1  -6    0.33    0.17
  -1   1   6    0.51    0.21
  -1   1   6    0.68    0.22
   0  -1  -6    8.14    0.50
   0   1   6    8.76    0.52
   0   1   6    8.26    0.51
  -1  -1  -6    8.08    0.47
  -1  -1  -6    7.56    0.48
  -1  -1  -6    7.53    0.47
   1   1   6    7.41    0.49
   1   1   6    7.30    0.48
  -2  -1  -6   16.13    0.75
  -2  -1  -6   16.16    0.77
   2   1   6   16.93    0.78
   2   1   6   16.34    0.79
  -3  -1  -6   11.95    0.62
  -3  -1  -6   10.79    0.62
   3   1   6   11.87    0.64
   3   1   6   11.61    0.65
  -4  -1  -6    1.27    0.26
  -4  -1  -6    1.43    0.27
   4   1   6    0.92    0.27
   4   1   6    1.37    0.29
  -5  -1  -6    5.17    0.48
  -5  -1  -6    4.94    0.44
   5   1   6    4.95    0.48
   5   1   6    4.90    0.47
  -6  -1  -6    8.26    0.58
  -6  -1  -6    7.09    0.60
  -6  -1  -6    6.76    1.13
   6   1   6    6.88    0.58
  -7  -1  -6    0.84    0.95
  -7  -1  -6    1.02    0.33
  -7  -1  -6    1.06    0.35
   7   1   6    1.20    0.35
   7   1   6    1.14    0.34
  -8  -1  -6    3.34    0.50
  -8  -1  -6    3.98    1.38
  -8  -1  -6    3.61    0.59
   8   1   6    3.05    0.46
  -9  -1  -6    6.80    0.73
  -9  -1  -6    5.56    1.81
  -9  -1  -6    6.89    0.81
   9   1   6    6.09    0.69
 -10  -1  -6    2.44    1.94
 -10  -1  -6    3.01    0.61
 -10  -1  -6    2.57    0.66
  10   1   6    2.06    0.56
 -11  -1  -6    1.44    0.55
 -11  -1  -6    3.39    0.73
  11   1   6    2.12    0.61
  -9   2   6    6.50    0.82
   8  -2  -6    0.37    0.33
  -8   2   6    1.16    0.44
  -8   2   6    0.63    0.43
   7  -2  -6    0.48    0.33
  -7   2   6    0.27    0.34
  -7   2   6    0.47    0.36
   6  -2  -6    6.82    0.62
  -6   2   6    7.10    0.63
  -6   2   6    7.32    0.66
   5  -2  -6   27.89    1.33
  -5   2   6   28.57    1.34
  -5   2   6   28.30    1.30
   4  -2  -6   34.54    1.52
  -4   2   6   37.51    1.54
  -4   2   6   34.32    1.49
   3  -2  -6   32.27    1.36
  -3   2   6   32.94    1.38
  -3   2   6   31.16    1.34
   2  -2  -6    2.28    0.31
  -2   2   6    2.43    0.36
  -2   2   6    2.12    0.30
   1  -2  -6    1.77    0.27
  -1   2   6    1.90    0.26
  -1   2   6    2.23    0.30
   0  -2  -6    2.00    0.30
   0   2   6    1.66    0.26
   0   2   6    1.37    0.23
  -1  -2  -6   21.45    0.95
  -1  -2  -6   20.13    0.89
   1   2   6   20.32    0.88
   1   2   6   20.13    0.89
  -2  -2  -6    6.37    0.45
  -2  -2  -6    6.79    0.44
   2   2   6    6.92    0.44
  -3  -2  -6    4.90    0.36
  -3  -2  -6    4.99    0.41
  -3  -2  -6    4.27    0.36
   3   2   6    4.53    0.37
   3   2   6    4.91    0.38
  -4  -2  -6   20.61    0.91
  -4  -2  -6   19.56    0.92
   4   2   6   20.36    0.92
   4   2   6   21.00    0.93
  -5  -2  -6    2.03    0.29
  -5  -2  -6    1.99    0.32
   5   2   6    1.58    0.29
   5   2   6    1.91    0.29
  -6  -2  -6    8.94    0.61
  -6  -2  -6    7.23    0.54
   6   2   6    7.90    0.58
   6   2   6    8.08    0.57
  -7  -2  -6    0.76    0.95
  -7  -2  -6    0.60    0.28
  -7  -2  -6    0.88    0.28
   7   2   6    1.30    0.30
   7   2   6    1.42    0.33
  -8  -2  -6    0.65    0.32
  -8  -2  -6    1.82    1.15
  -8  -2  -6    0.70    0.31
  -9  -2  -6    2.94    0.50
  -9  -2  -6    4.62    1.68
  -9  -2  -6    2.59    0.52
   9   2   6    1.72    0.44
 -12  -2  -6    2.99    0.73
 -12  -2  -6    3.40    0.81
  12   2   6    2.33    0.68
   8  -3  -6    0.46    0.38
  -8   3   6    0.81    0.62
   7  -3  -6    0.57    0.43
  -7   3   6    0.85    0.39
  -7   3   6   -0.25    0.41
   6  -3  -6    5.26    0.59
  -6   3   6    5.77    0.57
  -6   3   6    7.38    0.68
   5  -3  -6   28.36    1.37
  -5   3   6   30.08    1.36
  -5   3   6   26.88    1.29
   4  -3  -6   45.26    1.89
  -4   3   6   46.81    1.89
  -4   3   6   46.64    1.87
   3  -3  -6    1.94    0.34
  -3   3   6    2.27    0.32
  -3   3   6    2.73    0.42
   2  -3  -6    5.83    0.49
  -2   3   6    5.72    0.46
  -2   3   6    5.51    0.43
   1  -3  -6    1.36    0.27
  -1   3   6    1.94    0.28
  -1   3   6    1.43    0.25
   0  -3  -6    5.89    0.46
   0  -3  -6    8.90    0.46
   0   3   6    7.56    0.46
   0   3   6    8.93    0.48
  -1  -3  -6    4.53    0.31
  -1  -3  -6    3.49    0.34
  -1  -3  -6    4.42    0.32
   1   3   6    3.69    0.32
   1   3   6    4.00    0.32
  -2  -3  -6    0.88    0.17
  -2  -3  -6    0.93    0.20
  -2  -3  -6    0.64    0.17
   2   3   6    1.04    0.19
   2   3   6    0.63    0.15
  -3  -3  -6   55.26    2.00
  -3  -3  -6   53.62    1.97
  -3  -3  -6   54.01    1.99
  -3  -3  -6   55.65    2.01
   3   3   6   52.10    1.97
   3   3   6   52.75    1.97
  -4  -3  -6    2.12    0.29
  -4  -3  -6    2.26    0.28
  -4  -3  -6    3.09    0.30
  -4  -3  -6    1.95    0.26
   4   3   6    2.47    0.31
   4   3   6    2.36    0.28
  -5  -3  -6   15.81    0.79
  -5  -3  -6   17.12    0.78
  -5  -3  -6   15.59    0.76
   5   3   6   15.15    0.76
   5   3   6   15.72    0.75
  -6  -3  -6    5.28    0.44
  -6  -3  -6    5.61    0.48
   6   3   6    6.19    0.46
   6   3   6    6.02    0.46
  -7  -3  -6    4.22    0.48
  -7  -3  -6    3.78    0.49
   7   3   6    4.28    0.44
   7   3   6    3.90    0.46
  -8  -3  -6    3.87    0.55
  -8  -3  -6    3.29    0.48
  -8  -3  -6    3.23    1.03
  -9  -3  -6    1.99    0.45
  -9  -3  -6    2.86    1.23
  -9  -3  -6    1.11    0.40
   9   3   6    2.07    0.41
   8  -4  -6    2.31    0.57
   7  -4  -6   -0.40    0.32
   6  -4  -6    0.64    0.40
  -6   4   6    1.26    0.37
   5  -4  -6    0.86    0.38
  -5   4   6    0.05    0.26
  -5   4   6    0.81    0.29
   4  -4  -6    0.11    0.23
  -4   4   6    0.10    0.22
  -4   4   6    0.89    0.26
   3  -4  -6   10.48    0.70
  -3   4   6    9.83    0.59
  -3   4   6    9.86    0.65
   2  -4  -6    6.56    0.53
  -2   4   6    7.14    0.47
  -2   4   6    6.68    0.49
   1  -4  -6    2.48    0.34
  -1   4   6    2.12    0.28
   0  -4  -6   49.70    1.94
   0  -4  -6   55.25    1.94
   0  -4  -6   53.32    1.95
   0   4   6   51.29    1.91
   0   4   6   50.98    1.92
  -1  -4  -6   11.44    0.57
  -1  -4  -6   11.71    0.59
  -1  -4  -6   11.94    0.57
   1   4   6   10.45    0.53
   1   4   6   10.85    0.54
  -2  -4  -6    0.61    0.14
  -2  -4  -6    1.14    0.19
  -2  -4  -6    0.99    0.21
   2   4   6    1.26    0.20
   2   4   6    1.32    0.19
  -3  -4  -6    0.51    0.15
  -3  -4  -6    0.65    0.17
  -3  -4  -6    0.56    0.15
   3   4   6    0.63    0.16
   3   4   6    0.68    0.15
  -4  -4  -6    1.45    0.22
  -4  -4  -6    1.92    0.25
  -4  -4  -6    2.25    0.29
   4   4   6    2.29    0.26
   4   4   6    2.37    0.25
  -5  -4  -6   -0.01    0.11
  -5  -4  -6   -0.01    0.16
  -5  -4  -6   -0.01    0.14
  -5  -4  -6    0.17    0.10
   5   4   6   -0.08    0.10
   5   4   6   -0.16    0.11
  -6  -4  -6    4.81    0.40
  -6  -4  -6    3.94    0.40
   6   4   6    4.57    0.36
   6   4   6    4.64    0.35
  -7  -4  -6    6.61    0.52
  -7  -4  -6    6.86    0.56
   7   4   6    6.74    0.45
   7   4   6    7.31    0.48
  -8  -4  -6    1.90    0.36
  -8  -4  -6    1.41    0.34
  -9  -4  -6    0.14    0.30
  -9  -4  -6    0.05    0.31
   9   4   6    0.39    0.26
 -10  -4  -6   -0.21    0.32
 -10  -4  -6    0.21    0.34
  10   4   6    0.20    0.30
 -11  -4  -6    0.87    0.52
 -11  -4  -6    0.41    0.44
  11   4   6    0.68    0.37
 -12  -4  -6    0.68    0.55
 -12  -4  -6    1.52    0.63
  12   4   6    0.96    0.43
 -13  -4  -6    0.04    0.59
 -13  -4  -6    0.70    0.67
   9  -5  -6    2.02    0.67
   8  -5  -6    1.14    0.64
   7  -5  -6    0.46    0.50
   6  -5  -6    0.14    0.43
   5  -5  -6    9.65    0.84
   4  -5  -6   64.92    2.57
  -4   5   6   63.17    2.48
   3  -5  -6    2.07    0.45
  -3   5   6    2.38    0.37
  -3   5   6    2.60    0.36
   2  -5  -6   -0.04    0.19
  -2   5   6    0.11    0.16
  -2   5   6    0.26    0.16
   1  -5  -6    3.05    0.52
   1  -5  -6    1.75    0.30
   1  -5  -6    2.03    0.21
  -1   5   6    1.84    0.27
  -1   5   6    2.04    0.26
   0  -5  -6    4.09    0.41
   0  -5  -6    3.88    0.30
   0  -5  -6    4.42    0.32
   0   5   6    3.80    0.31
   0   5   6    4.05    0.30
  -1  -5  -6    5.64    0.41
   1   5   6    5.02    0.32
   1   5   6    5.00    0.32
  -2  -5  -6    0.71    0.17
  -2  -5  -6    0.71    0.16
  -2  -5  -6    0.85    0.20
   2   5   6    0.57    0.14
   2   5   6    0.94    0.15
  -3  -5  -6   18.40    0.79
  -3  -5  -6   19.04    0.80
  -3  -5  -6   18.28    0.79
   3   5   6   18.20    0.79
   3   5   6   17.77    0.74
  -4  -5  -6   13.71    0.66
  -4  -5  -6   15.49    0.67
  -4  -5  -6   14.19    0.68
  -4  -5  -6   14.99    0.68
   4   5   6   14.97    0.63
  -5  -5  -6   13.02    0.63
  -5  -5  -6   12.60    0.64
  -5  -5  -6   14.07    0.65
  -5  -5  -6   12.73    0.64
   5   5   6   13.62    0.61
  -6  -5  -6    1.60    0.26
  -6  -5  -6    1.66    0.29
  -6  -5  -6    1.93    0.26
   6   5   6    2.28    0.22
  -7  -5  -6    2.89    0.37
  -7  -5  -6    3.73    0.41
  -8  -5  -6    5.92    0.50
  -8  -5  -6    5.52    0.54
  -9  -5  -6    1.03    0.34
  -9  -5  -6    1.10    0.35
   9   5   6    0.71    0.27
 -10  -5  -6    0.88    0.39
 -10  -5  -6    0.75    0.38
  10   5   6    1.18    0.31
 -11  -5  -6    2.49    0.54
 -11  -5  -6    2.24    0.53
  11   5   6    2.57    0.42
 -12  -5  -6    5.47    0.78
 -12  -5  -6    6.99    0.83
  12   5   6    5.58    0.94
 -13  -5  -6    0.26    0.61
 -13  -5  -6   -0.47    0.55
   8  -6  -6    1.14    0.58
   7  -6  -6    3.01    0.67
   6  -6  -6    0.29    0.40
   5  -6  -6   13.47    1.01
   4  -6  -6    1.66    0.48
   3  -6  -6   12.28    0.83
   2  -6  -6   -0.08    0.27
  -2   6   6   -0.06    0.14
   1  -6  -6    0.25    0.22
  -1   6   6    1.06    0.19
  -1   6   6    0.88    0.14
  -1  -6  -6    4.91    0.35
  -1  -6  -6    4.45    0.39
  -1  -6  -6    4.20    0.33
   1   6   6    4.58    0.28
  -2  -6  -6    1.07    0.19
  -2  -6  -6    1.70    0.24
  -2  -6  -6    1.23    0.20
  -3  -6  -6    8.86    0.47
  -3  -6  -6    8.10    0.47
  -3  -6  -6    9.66    0.48
  -4  -6  -6    1.63    0.22
  -4  -6  -6    1.91    0.23
  -4  -6  -6    1.85    0.25
  -4  -6  -6    2.33    0.28
  -5  -6  -6    2.17    0.26
  -5  -6  -6    2.42    0.29
  -5  -6  -6    2.09    0.25
  -5  -6  -6    2.05    0.25
  -6  -6  -6   -0.11    0.12
  -6  -6  -6    0.08    0.12
  -6  -6  -6    0.27    0.19
  -6  -6  -6   -0.01    0.15
  -7  -6  -6    3.95    0.38
  -7  -6  -6    4.04    0.40
  -8  -6  -6    0.31    0.25
  -8  -6  -6    0.32    0.24
  -9  -6  -6    8.47    0.63
  -9  -6  -6    8.73    0.65
   9   6   6    7.61    0.49
 -10  -6  -6    0.73    0.36
 -10  -6  -6    0.35    0.35
  10   6   6    0.91    0.26
 -11  -6  -6    0.26    0.39
 -11  -6  -6    0.57    0.41
 -12  -6  -6    1.07    0.52
 -12  -6  -6    0.73    0.48
 -13  -6  -6    0.03    0.54
 -13  -6  -6    1.04    0.60
   7  -7  -6    0.26    0.55
   6  -7  -6    2.84    0.62
   5  -7  -6    0.05    0.46
   4  -7  -6    0.90    0.42
   3  -7  -6   -0.24    0.31
   2  -7  -6    2.44    0.45
   1  -7  -6    8.67    0.64
   0  -7  -6    0.12    0.20
  -1  -7  -6    7.75    0.51
  -1  -7  -6    6.39    0.74
  -1  -7  -6    8.19    0.46
  -2  -7  -6   31.43    1.27
  -2  -7  -6   32.90    1.27
  -2  -7  -6   33.74    1.27
  -3  -7  -6   -0.02    0.15
  -3  -7  -6    0.11    0.13
  -3  -7  -6    0.06    0.11
  -4  -7  -6    4.20    0.32
  -4  -7  -6    3.61    0.31
  -4  -7  -6    4.09    0.31
  -5  -7  -6    6.01    0.38
  -5  -7  -6    6.71    0.38
  -5  -7  -6    5.82    0.37
  -5  -7  -6    6.04    0.40
  -6  -7  -6    5.13    0.37
  -6  -7  -6    5.47    0.38
  -6  -7  -6    5.39    0.37
  -6  -7  -6    5.01    0.38
  -7  -7  -6    1.18    0.24
  -7  -7  -6    1.49    0.26
  -8  -7  -6    1.36    0.29
  -8  -7  -6    1.69    0.30
  -9  -7  -6    1.92    0.35
  -9  -7  -6    1.46    0.33
 -10  -7  -6    5.05    0.57
 -10  -7  -6    5.17    0.55
 -11  -7  -6    0.25    0.36
 -11  -7  -6    0.24    0.37
 -12  -7  -6    0.61    0.45
 -12  -7  -6    0.73    0.47
 -13  -7  -6    0.16    0.52
 -13  -7  -6    0.25    0.54
   6  -8  -6   -0.03    0.52
   5  -8  -6    5.41    0.76
   4  -8  -6    3.03    0.60
   3  -8  -6   10.69    0.87
   2  -8  -6    0.44    0.33
   1  -8  -6    7.26    0.62
   0  -8  -6    0.66    0.28
  -1  -8  -6    2.43    0.34
  -2  -8  -6    0.09    0.19
  -2  -8  -6    0.28    0.15
  -3  -8  -6   18.06    0.82
  -3  -8  -6   22.09    0.84
  -3  -8  -6   20.18    0.85
  -4  -8  -6    1.78    0.22
  -5  -8  -6    0.40    0.16
  -6  -8  -6   15.57    0.69
  -6  -8  -6   15.43    0.67
  -7  -8  -6    0.13    0.17
  -7  -8  -6   -0.05    0.16
  -7  -8  -6   -0.09    0.17
  -8  -8  -6    1.05    0.25
  -8  -8  -6    1.00    0.25
  -9  -8  -6   -0.01    0.25
  -9  -8  -6    0.08    0.23
 -10  -8  -6    6.79    0.61
 -10  -8  -6    6.72    0.59
 -11  -8  -6    7.37    0.70
 -11  -8  -6    8.22    0.74
 -12  -8  -6    0.70    0.44
 -12  -8  -6    0.18    0.42
 -13  -8  -6    0.72    0.56
 -13  -8  -6    0.67    0.52
   5  -9  -6   -0.37    0.47
   4  -9  -6   -0.08    0.45
   3  -9  -6    0.73    0.47
   2  -9  -6    1.18    0.42
   1  -9  -6    4.59    0.55
   0  -9  -6    0.45    0.30
  -1  -9  -6    0.56    0.27
  -2  -9  -6    9.89    0.60
  -3  -9  -6    8.00    0.48
  -3  -9  -6    7.64    0.52
  -4  -9  -6    6.56    0.37
  -5  -9  -6    9.69    0.47
  -6  -9  -6    0.17    0.14
  -6  -9  -6    0.13    0.15
  -7  -9  -6    0.82    0.19
  -7  -9  -6    1.00    0.20
  -8  -9  -6    0.80    0.22
  -9  -9  -6    8.25    0.55
  -9  -9  -6    8.48    0.57
 -10  -9  -6    8.03    0.64
 -10  -9  -6    8.11    0.62
 -11  -9  -6   -0.15    0.32
 -11  -9  -6    0.07    0.35
 -12  -9  -6   -0.13    0.40
 -12  -9  -6    0.61    0.43
 -13  -9  -6   -0.29    0.48
 -13  -9  -6    0.86    0.51
   4 -10  -6   -0.13    0.55
   3 -10  -6   -0.26    0.50
   2 -10  -6    2.67    0.59
   1 -10  -6    2.91    0.51
   0 -10  -6    0.41    0.31
  -1 -10  -6    6.99    0.60
  -2 -10  -6    0.98    0.28
  -5 -10  -6    0.06    0.12
  -6 -10  -6   11.24    0.49
  -7 -10  -6    2.79    0.28
  -7 -10  -6    2.53    0.23
  -8 -10  -6    0.29    0.18
  -9 -10  -6    4.04    0.37
 -10 -10  -6    1.33    0.32
 -11 -10  -6   12.08    0.79
 -11 -10  -6   11.63    0.78
 -12 -10  -6    1.08    0.43
 -12 -10  -6    1.62    0.48
 -13 -10  -6    1.21    0.52
 -13 -10  -6    0.56    0.47
   3 -11  -6    5.49    0.83
   2 -11  -6    0.93    0.54
   1 -11  -6    2.28    0.52
   0 -11  -6    0.40    0.38
  -1 -11  -6    0.66    0.34
  -2 -11  -6    0.34    0.29
  -9 -11  -6    0.59    0.21
 -10 -11  -6    8.68    0.58
 -11 -11  -6    1.32    0.37
 -12 -11  -6    1.40    0.46
   1 -12  -6   -0.48    0.46
   0 -12  -6    2.97    0.58
  -1 -12  -6    2.88    0.51
  -2 -12  -6    1.25    0.37
 -11 -12  -6   14.14    0.77
  -1 -13  -6    0.47    0.47
  -2 -13  -6    0.06    0.39
  -7  -8   7    0.28    0.62
  -7  -8   7    0.34    0.70
  -6  -8   7   -0.04    0.61
  -6  -8   7   -0.61    0.57
  -5  -8   7    0.29    0.65
  -5  -8   7   -0.08    0.58
  -4  -8   7   -0.18    0.57
  -4  -8   7    0.00    0.59
  -3  -8   7    9.25    1.06
  -3  -8   7   10.71    1.13
  -2  -8   7    0.15    0.60
  -2  -8   7    0.74    0.65
  -1  -8   7    8.99    1.12
  -1  -8   7   10.95    1.15
   0  -8   7    1.15    0.75
   0  -8   7    0.71    0.72
  -8  -7   7    0.07    0.61
  -8  -7   7    0.27    0.56
  -7  -7   7    1.97    0.69
  -7  -7   7    3.55    0.76
  -6  -7   7    0.42    0.60
  -6  -7   7    0.38    0.51
  -5  -7   7    6.22    0.83
  -5  -7   7    6.34    0.86
  -4  -7   7    2.67    0.70
  -4  -7   7    1.83    0.60
  -3  -7   7    2.08    0.63
  -3  -7   7    2.35    0.63
  -2  -7   7    3.09    0.70
  -2  -7   7    3.11    0.71
  -1  -7   7    1.88    0.67
  -1  -7   7    2.03    0.66
   0  -7   7    5.36    0.85
   0  -7   7    5.45    0.91
   1  -7   7   -0.41    0.53
   1  -7   7    0.77    0.66
   2  -7   7    3.49    0.80
   2  -7   7    4.54    0.87
  -9  -6   7    2.31    0.71
  -9  -6   7    1.61    0.65
  -8  -6   7    1.87    0.65
  -8  -6   7    2.33    0.67
  -7  -6   7    0.39    0.56
  -7  -6   7    0.02    0.47
  -6  -6   7    0.82    0.54
  -6  -6   7    0.11    0.48
  -5  -6   7    0.81    0.48
  -5  -6   7    1.31    0.57
  -4  -6   7    1.24    0.53
  -4  -6   7    1.56    0.50
  -3  -6   7    0.06    0.40
  -3  -6   7   -0.21    0.45
  -2  -6   7    0.65    0.47
  -2  -6   7   -0.02    0.44
  -1  -6   7   26.38    1.52
  -1  -6   7   28.12    1.56
   0  -6   7    0.16    0.52
   0  -6   7    0.26    0.48
   1  -6   7    8.59    0.93
   1  -6   7    9.50    1.02
   2  -6   7    0.14    0.51
   2  -6   7    1.03    0.60
   3  -6   7   -0.17    0.53
   3  -6   7    1.11    0.63
   4  -6   7    2.91    0.81
   4  -6   7    2.11    0.75
 -10  -5   7    2.27    0.77
 -10  -5   7    1.65    0.69
  -9  -5   7    0.16    0.57
  -9  -5   7    0.02    0.58
  -8  -5   7    6.44    0.83
  -8  -5   7    5.30    0.79
  -7  -5   7    1.05    0.49
  -7  -5   7    0.50    0.48
  -6  -5   7    3.25    0.59
  -6  -5   7    2.90    0.60
  -5  -5   7    1.43    0.50
  -5  -5   7    1.87    0.48
  -4  -5   7    3.83    0.63
  -4  -5   7    3.61    0.57
  -3  -5   7    0.20    0.40
  -3  -5   7    0.76    0.41
  -2  -5   7    0.44    0.45
  -2  -5   7    0.21    0.35
  -1  -5   7    0.02    0.37
  -1  -5   7    0.18    0.41
   0  -5   7   27.54    1.49
   0  -5   7   27.64    1.48
   1  -5   7   15.33    1.10
   1  -5   7   13.54    1.07
   2  -5   7   -0.65    0.46
   2  -5   7    0.29    0.42
   3  -5   7    0.54    0.56
   3  -5   7    0.53    0.50
   4  -5   7    1.68    0.65
   4  -5   7    2.29    0.69
   5  -5   7    5.73    0.94
   5  -5   7    7.17    0.96
   6  -5   7    0.48    0.67
   6  -5   7    1.00    0.69
   6  -5   7    0.90    0.78
  -7  -4   7    1.37    0.53
  -7  -4   7    0.65    0.47
  -6  -4   7    7.11    0.77
  -6  -4   7    5.80    0.71
  -5  -4   7    0.53    0.42
  -5  -4   7    1.27    0.42
  -4  -4   7    2.37    0.49
  -4  -4   7    1.26    0.42
  -3  -4   7    2.99    0.53
  -3  -4   7    2.42    0.46
  -2  -4   7    0.41    0.37
  -2  -4   7    0.59    0.36
  -1  -4   7   14.42    0.95
  -1  -4   7   13.74    0.93
   0  -4   7    3.97    0.59
   0  -4   7    3.48    0.52
   1  -4   7    5.61    0.70
   1  -4   7    7.40    0.83
   2  -4   7    1.60    0.50
   2  -4   7    1.55    0.50
   3  -4   7    0.73    0.49
   3  -4   7    0.94    0.49
   4  -4   7    1.03    0.53
   4  -4   7    1.79    0.54
   5  -4   7   11.06    1.11
   5  -4   7   10.85    1.08
   6  -4   7   -0.23    0.57
   6  -4   7    0.21    0.59
   7  -4   7    0.75    0.58
   7  -4   7    1.90    0.80
 -10  -3   7    0.18    0.56
  -9  -3   7    2.52    2.15
  -9  -3   7    0.44    0.53
  -9  -3   7    0.14    0.51
  -8  -3   7    3.61    1.68
  -8  -3   7    0.88    0.48
  -8  -3   7   -0.20    0.41
  -7  -3   7    3.56    0.63
  -7  -3   7    2.93    1.29
  -7  -3   7    4.65    0.64
  -6  -3   7    1.26    0.78
  -6  -3   7   -0.03    0.36
  -6  -3   7   -0.02    0.36
  -5  -3   7    6.67    0.70
  -5  -3   7    4.72    0.61
  -5  -3   7    7.55    1.60
  -4  -3   7   21.20    1.13
  -4  -3   7   18.44    1.08
  -3  -3   7    1.15    0.37
  -3  -3   7    0.95    0.35
   2   3  -7   16.85    0.86
  -2  -3   7   17.00    0.98
  -2  -3   7   17.34    0.99
   1   3  -7    4.30    0.41
  -1  -3   7    4.87    0.58
  -1  -3   7    4.93    0.60
   0   3  -7   18.84    0.94
   0   3  -7   20.39    1.05
   0  -3   7   19.17    1.06
   0  -3   7   16.60    1.02
  -1   3  -7    7.26    0.55
   1  -3   7    8.23    0.75
   1  -3   7    8.25    0.72
  -2   3  -7    1.48    0.33
   2  -3   7    1.81    0.46
   2  -3   7    1.07    0.37
   3  -3   7    0.03    0.37
   3  -3   7    0.14    0.33
   4  -3   7   -0.24    0.37
   4  -3   7    0.29    0.37
   5  -3   7   18.08    1.22
   5  -3   7   15.39    1.17
   6  -3   7    0.17    0.50
   6  -3   7    0.10    0.47
   7  -3   7    0.94    0.64
   7  -3   7    1.27    0.61
   8  -3   7    0.15    0.66
 -10  -2   7   -2.04    2.36
 -10  -2   7    0.25    0.58
 -10  -2   7    0.15    0.52
  -8  -2   7    1.27    0.50
  -8  -2   7    0.28    0.40
  -8  -2   7   -0.67    1.96
  -7  -2   7    0.03    1.63
  -7  -2   7    2.15    0.52
  -7  -2   7    2.30    0.52
  -6  -2   7    6.91    0.74
  -6  -2   7    5.92    0.66
  -6  -2   7    5.75    1.59
  -5  -2   7    2.09    0.45
  -5  -2   7    2.23    0.48
  -5  -2   7    2.90    0.91
   4   2  -7    1.16    0.26
  -4  -2   7    1.56    0.38
  -4  -2   7    1.16    0.67
  -4  -2   7    1.27    0.40
   3   2  -7    4.70    0.50
  -3  -2   7    4.24    0.52
  -3  -2   7    4.53    0.55
  -3  -2   7    2.66    0.67
   2   2  -7   13.54    0.74
   2   2  -7   13.55    0.73
   2   2  -7   13.04    0.69
  -2  -2   7   12.30    0.80
  -2  -2   7   13.17    0.83
   1   2  -7   37.64    1.54
   1   2  -7   37.63    1.58
  -1  -2   7   40.12    1.67
  -1  -2   7   38.85    1.65
   0   2  -7   35.05    1.46
   0   2  -7   34.60    1.49
   0  -2   7   36.31    1.57
   0  -2   7   36.68    1.57
  -1   2  -7   28.54    1.26
  -1   2  -7   26.82    1.21
   1  -2   7   28.29    1.33
   1  -2   7   30.19    1.37
  -2   2  -7   31.09    1.34
  -2   2  -7   30.07    1.36
   2  -2   7   29.82    1.45
   2  -2   7   33.15    1.47
  -3   2  -7    0.47    0.25
  -3   2  -7    0.30    0.22
   3  -2   7    0.28    0.32
   3  -2   7    0.46    0.35
  -4   2  -7    1.90    0.37
  -4   2  -7    2.67    0.46
   4  -2   7    1.95    0.40
   4  -2   7    2.84    0.51
  -5   2  -7    2.57    0.46
   5  -2   7    2.68    0.53
   5  -2   7    2.28    0.53
  -6   2  -7    2.28    0.47
   6  -2   7    3.48    0.66
   6  -2   7    1.84    0.52
   7  -2   7    0.09    0.48
   7  -2   7    0.90    0.48
   8  -2   7    0.24    0.58
   9  -2   7    2.06    0.75
 -10  -1   7    1.40    0.58
 -10  -1   7   -1.97    2.57
 -10  -1   7   -0.48    0.51
  -9  -1   7    5.48    0.79
  -9  -1   7    6.65    2.65
  -9  -1   7    5.92    0.80
  -8  -1   7    0.61    1.83
  -8  -1   7    1.20    0.47
  -8  -1   7    1.34    0.49
  -7  -1   7    1.85    0.46
  -7  -1   7    1.45    0.46
  -7  -1   7    2.46    1.38
   6   1  -7    1.59    0.37
  -6  -1   7    0.80    1.05
  -6  -1   7    1.55    0.43
  -6  -1   7    1.72    0.45
   5   1  -7    5.55    0.52
  -5  -1   7    5.48    0.59
  -5  -1   7    4.21    1.06
  -5  -1   7    6.75    0.62
   3   1  -7    0.51    0.22
  -3  -1   7    0.82    0.74
  -3  -1   7    0.54    0.29
  -3  -1   7    0.63    0.27
   2   1  -7    5.37    0.46
  -2  -1   7    6.59    0.55
  -2  -1   7    5.19    1.21
  -2  -1   7    5.18    0.52
   1   1  -7    7.25    0.48
   1   1  -7    7.07    0.51
   1   1  -7    6.90    0.51
  -1  -1   7    5.80    0.56
  -1  -1   7    6.85    0.57
   0   1  -7    7.27    0.53
   0   1  -7    6.86    0.48
   0  -1   7    8.26    0.59
   0  -1   7    7.94    0.59
  -1   1  -7    3.22    0.39
  -1   1  -7    1.73    0.29
   1  -1   7    2.46    0.42
   1  -1   7    3.01    0.44
  -2   1  -7   14.04    0.74
  -2   1  -7   14.04    0.78
   2  -1   7   14.09    0.83
   2  -1   7   13.72    0.83
  -3   1  -7    6.17    0.53
  -3   1  -7    6.31    0.52
   3  -1   7    6.22    0.61
   3  -1   7    5.33    0.60
  -4   1  -7    0.20    0.21
  -4   1  -7    0.24    0.22
   4  -1   7    0.11    0.25
   4  -1   7    0.12    0.32
  -5   1  -7   21.73    1.11
  -5   1  -7   24.16    1.18
   5  -1   7   22.50    1.21
   5  -1   7   21.93    1.19
  -6   1  -7   10.68    0.79
  -6   1  -7   11.45    0.77
   6  -1   7   11.79    0.90
   6  -1   7    9.35    0.82
  -7   1  -7    2.97    0.54
  -7   1  -7    2.83    0.48
   7  -1   7    2.45    0.55
   7  -1   7    1.58    0.51
  -8   1  -7    1.39    0.45
   9  -1   7    3.29    0.73
  10  -1   7    0.03    0.63
 -10   0   7    0.40    0.56
 -10   0   7    0.73    0.54
 -10   0   7   -2.39    2.77
  -9   0   7   -0.74    0.41
  -9   0   7    0.40    0.51
  -8   0   7    1.38    0.53
  -8   0   7    2.36    2.07
  -8   0   7    1.90    0.54
  -7   0   7    0.40    0.34
  -7   0   7    0.44    0.36
  -7   0   7   -0.19    1.59
   6   0  -7    0.37    0.24
  -6   0   7    0.46    0.35
  -6   0   7    0.15    0.32
   5   0  -7    1.38    0.31
  -5   0   7    2.43    0.43
   4   0  -7    0.15    0.19
  -4   0   7   -0.01    0.22
  -4   0   7    0.00    0.25
   3   0  -7    0.81    0.25
  -3   0   7    1.00    0.33
  -3   0   7    1.28    0.31
   2   0  -7    0.99    0.23
  -2   0   7    0.52    0.65
  -2   0   7    1.45    0.33
  -2   0   7    1.36    0.30
   1   0  -7    7.11    0.52
  -1   0   7    6.28    0.54
  -1   0   7    6.97    0.55
  -1   0   7    8.12    1.25
   0   0  -7   62.00    2.28
   0   0  -7   59.45    2.28
   0   0  -7   56.53    2.24
   0   0   7   61.57    2.30
   0   0   7   61.81    2.31
  -1   0  -7    1.76    0.28
  -1   0  -7    1.28    0.25
   1   0   7    1.69    0.33
   1   0   7    1.39    0.29
  -2   0  -7    5.98    0.50
  -2   0  -7    7.24    0.49
   2   0   7    6.66    0.54
   2   0   7    6.91    0.56
  -3   0  -7    4.80    0.43
  -3   0  -7    5.13    0.48
   3   0   7    3.70    0.44
   3   0   7    5.69    0.55
  -4   0  -7    0.30    0.21
  -4   0  -7    0.05    0.22
   4   0   7    0.25    0.26
   4   0   7   -0.08    0.27
  -5   0  -7   23.06    1.12
  -5   0  -7   21.38    1.07
   5   0   7   22.01    1.14
   5   0   7   20.92    1.11
  -6   0  -7    5.72    0.56
  -6   0  -7    6.31    0.64
   6   0   7    7.00    0.65
   6   0   7    7.25    0.68
  -7   0  -7   -0.17    0.27
  -7   0  -7   -0.31    0.25
   7   0   7   -0.16    0.30
   7   0   7   -0.08    0.35
  -8   0  -7    1.39    0.43
  -8   0  -7    1.39    0.47
  -9   0  -7    0.40    0.42
  -9   0  -7    0.08    0.46
   9   0   7    0.02    0.50
 -10   0  -7    2.14    0.63
  10   0   7    1.42    0.62
 -10   1   7   -0.32    2.79
 -10   1   7    1.34    0.65
  -9   1   7    2.44    0.65
  -9   1   7    2.53    0.67
  -8   1   7    4.46    0.69
  -8   1   7    5.66    0.74
   7  -1  -7    3.00    0.55
  -7   1   7    2.89    0.51
  -7   1   7    4.51    0.63
   6  -1  -7    2.40    0.41
  -6   1   7    2.71    0.47
  -6   1   7    1.86    0.44
   5  -1  -7   10.99    0.78
  -5   1   7   12.52    0.84
  -5   1   7   12.36    0.82
   4  -1  -7    1.16    0.32
  -4   1   7    1.15    0.33
  -4   1   7    1.19    0.33
   3  -1  -7   -0.03    0.22
  -3   1   7   -0.05    0.23
  -3   1   7   -0.12    0.22
   2  -1  -7    4.44    0.45
  -2   1   7    5.08    0.47
  -2   1   7    4.10    0.44
   1  -1  -7   17.36    0.86
  -1   1   7   17.04    0.87
  -1   1   7   17.48    0.87
   0  -1  -7   53.13    2.07
   0   1   7   53.73    2.08
   0   1   7   55.94    2.08
  -1  -1  -7    4.43    0.40
  -1  -1  -7    4.33    0.41
  -1  -1  -7    4.16    0.38
   1   1   7    3.70    0.40
   1   1   7    4.48    0.42
  -2  -1  -7   10.26    0.61
  -2  -1  -7    9.67    0.57
   2   1   7   10.12    0.62
   2   1   7   10.20    0.62
  -3  -1  -7    0.45    0.20
  -3  -1  -7    0.85    0.25
   3   1   7    1.04    0.27
   3   1   7    0.86    0.26
  -4  -1  -7    2.26    0.34
  -4  -1  -7    2.58    0.41
   4   1   7    1.33    0.28
   4   1   7    2.59    0.38
  -5  -1  -7    1.93    0.34
  -5  -1  -7    1.93    0.38
   5   1   7    1.13    0.34
   5   1   7    1.77    0.35
  -6  -1  -7    1.29    0.32
  -6  -1  -7    1.69    0.35
   6   1   7    1.26    0.32
   6   1   7    1.13    0.32
  -7  -1  -7    4.18    0.58
  -7  -1  -7    3.75    0.53
   7   1   7    2.76    0.46
   7   1   7    3.71    0.57
  -9  -1  -7    0.58    0.39
  -9  -1  -7    0.03    0.41
   9   1   7   -0.02    0.42
 -10  -1  -7   -0.04    0.43
 -10  -1  -7    0.96    0.46
  10   1   7   -0.40    0.45
 -11  -1  -7    1.49    0.61
 -11  -1  -7    0.38    0.61
  11   1   7    0.37    0.58
  -9   2   7   -0.57    0.57
   8  -2  -7   11.42    1.31
  -8   2   7    8.89    0.93
   7  -2  -7    9.81    0.84
  -7   2   7    8.73    0.78
  -7   2   7   11.12    0.91
   6  -2  -7    0.22    0.26
  -6   2   7    0.28    0.38
  -6   2   7    0.00    0.29
   5  -2  -7   17.35    1.00
  -5   2   7   19.21    1.04
  -5   2   7   16.71    0.96
   4  -2  -7    0.13    0.21
  -4   2   7   -0.26    0.22
  -4   2   7   -0.28    0.20
   3  -2  -7    0.49    0.25
  -3   2   7    0.68    0.24
  -3   2   7    0.83    0.27
   2  -2  -7   14.61    0.79
  -2   2   7   14.85    0.79
  -2   2   7   13.71    0.77
   1  -2  -7    0.16    0.19
  -1   2   7    0.15    0.21
  -1   2   7    0.66    0.22
   0  -2  -7    4.03    0.42
   0   2   7    3.90    0.39
   0   2   7    4.97    0.47
  -1  -2  -7    9.25    0.56
   1   2   7    8.30    0.54
   1   2   7    9.64    0.57
  -2  -2  -7    4.82    0.41
  -2  -2  -7    4.60    0.39
   2   2   7    5.23    0.43
   2   2   7    5.67    0.43
  -3  -2  -7    2.90    0.34
  -3  -2  -7    2.65    0.34
   3   2   7    2.96    0.36
   3   2   7    2.07    0.28
  -4  -2  -7    2.22    0.32
  -4  -2  -7    2.52    0.36
   4   2   7    2.85    0.35
   4   2   7    2.47    0.33
  -5  -2  -7    6.86    0.52
  -5  -2  -7    6.06    0.53
   5   2   7    6.82    0.52
   5   2   7    5.86    0.49
  -6  -2  -7    0.57    0.27
  -6  -2  -7    0.42    0.24
   6   2   7    0.26    0.21
   6   2   7    0.65    0.26
  -7  -2  -7    1.51    0.40
  -7  -2  -7    2.33    0.42
   7   2   7    1.82    0.44
   7   2   7    2.08    0.36
  -8  -2  -7    0.48    0.33
  -8  -2  -7    0.36    0.37
 -10  -2  -7    6.30    0.77
 -10  -2  -7    8.10    0.90
  10   2   7    6.73    0.79
 -11  -2  -7    0.32    0.57
 -11  -2  -7    0.70    0.51
  11   2   7    1.41    0.57
 -12  -2  -7    4.73    0.87
 -12  -2  -7    5.42    0.84
  12   2   7    4.81    0.82
   8  -3  -7    1.74    0.57
   7  -3  -7    0.32    0.34
  -7   3   7    0.10    0.41
   6  -3  -7   18.42    1.11
  -6   3   7   17.63    1.03
  -6   3   7   18.82    1.11
   5  -3  -7    0.24    0.27
  -5   3   7    0.70    0.35
  -5   3   7    0.37    0.28
   4  -3  -7   61.76    2.44
  -4   3   7   61.34    2.42
  -4   3   7   61.16    2.40
   3  -3  -7   16.56    0.91
  -3   3   7   17.61    0.91
  -3   3   7   17.23    0.89
   2  -3  -7    0.88    0.24
  -2   3   7    1.25    0.25
  -2   3   7    0.91    0.30
   1  -3  -7   -0.06    0.18
  -1   3   7   -0.05    0.16
  -1   3   7    0.10    0.17
   0  -3  -7    1.70    0.30
   0   3   7    1.14    0.25
   0   3   7    2.12    0.30
  -1  -3  -7    0.05    0.16
  -1  -3  -7    0.19    0.12
   1   3   7    0.13    0.18
   1   3   7    0.03    0.14
  -2  -3  -7    2.92    0.37
   2   3   7    3.65    0.34
   2   3   7    3.51    0.36
  -3  -3  -7   11.30    0.59
  -3  -3  -7   10.14    0.59
  -3  -3  -7    9.60    0.56
   3   3   7    9.75    0.56
   3   3   7    9.49    0.55
  -4  -3  -7    2.17    0.33
  -4  -3  -7    2.10    0.29
  -4  -3  -7    1.78    0.28
   4   3   7    1.80    0.28
   4   3   7    2.68    0.34
  -5  -3  -7    0.26    0.20
  -5  -3  -7    0.44    0.21
   5   3   7    0.16    0.17
   5   3   7   -0.08    0.15
  -6  -3  -7    7.50    0.59
  -6  -3  -7    7.70    0.55
   6   3   7    7.68    0.54
   6   3   7    8.05    0.55
  -7  -3  -7    6.06    0.63
  -7  -3  -7    5.91    0.54
   7   3   7    6.22    0.52
  -8  -3  -7    2.79    0.46
  -8  -3  -7    2.27    0.44
  -9  -3  -7    1.62    0.48
  -9  -3  -7    1.62    0.46
 -10  -3  -7    1.98    0.55
 -10  -3  -7    1.86    0.51
  10   3   7    1.52    0.48
 -11  -3  -7    3.48    0.70
 -11  -3  -7    4.07    0.73
  11   3   7    2.86    0.57
 -12  -3  -7    0.63    0.63
 -12  -3  -7    1.93    0.65
  12   3   7    1.66    0.58
   8  -4  -7    4.39    0.78
   7  -4  -7    0.24    0.36
   6  -4  -7    0.15    0.40
   5  -4  -7    7.54    0.73
  -5   4   7    8.35    0.70
   4  -4  -7    9.38    0.76
  -4   4   7   10.47    0.73
  -4   4   7    9.90    0.65
   3  -4  -7    4.59    0.51
  -3   4   7    4.47    0.44
  -3   4   7    4.97    0.49
   2  -4  -7    0.16    0.23
  -2   4   7    0.27    0.20
  -2   4   7    0.43    0.19
   1  -4  -7    0.02    0.19
  -1   4   7    0.57    0.19
   0  -4  -7   25.15    1.05
   0  -4  -7   24.33    1.09
   0   4   7   25.24    1.06
   0   4   7   23.73    1.04
  -1  -4  -7    9.83    0.58
  -1  -4  -7    9.01    0.52
  -1  -4  -7   10.34    0.54
   1   4   7    9.69    0.53
   1   4   7    8.59    0.51
  -2  -4  -7    5.30    0.36
  -2  -4  -7    5.26    0.35
  -2  -4  -7    4.41    0.39
   2   4   7    4.43    0.36
   2   4   7    4.29    0.35
  -3  -4  -7   30.12    1.18
  -3  -4  -7   26.86    1.15
  -3  -4  -7   27.40    1.17
  -3  -4  -7   28.44    1.16
   3   4   7   26.72    1.12
   3   4   7   27.93    1.12
  -4  -4  -7    0.27    0.17
  -4  -4  -7    0.33    0.17
   4   4   7    0.07    0.13
   4   4   7   -0.02    0.13
  -5  -4  -7    0.10    0.17
  -5  -4  -7    0.00    0.18
   5   4   7   -0.12    0.11
   5   4   7    0.43    0.15
  -6  -4  -7    2.55    0.35
  -6  -4  -7    2.30    0.35
   6   4   7    2.85    0.32
   6   4   7    3.11    0.38
  -7  -4  -7   20.80    1.00
  -7  -4  -7   19.36    1.02
  -8  -4  -7    3.88    0.51
  -8  -4  -7    4.18    0.50
  -9  -4  -7    7.84    0.74
  -9  -4  -7    7.99    0.71
 -10  -4  -7    0.99    0.43
 -10  -4  -7    1.54    0.48
  10   4   7    1.42    0.41
 -11  -4  -7    0.81    0.53
 -11  -4  -7    1.02    0.51
  11   4   7    0.56    0.42
 -12  -4  -7    0.79    0.63
 -12  -4  -7    0.06    0.53
  12   4   7    0.16    0.43
   8  -5  -7    1.94    0.72
   7  -5  -7    3.21    0.67
   6  -5  -7    0.10    0.39
   5  -5  -7    7.75    0.80
   4  -5  -7   14.71    0.95
   3  -5  -7   28.93    1.41
  -3   5   7   32.24    1.43
  -3   5   7   31.05    1.36
   2  -5  -7    0.41    0.24
  -2   5   7    0.32    0.18
  -2   5   7    0.18    0.16
   1  -5  -7    9.95    0.66
  -1   5   7   10.48    0.60
  -1   5   7   10.34    0.57
   0  -5  -7    0.40    0.22
   0  -5  -7    0.64    0.13
   0   5   7    0.60    0.17
   0   5   7    0.28    0.16
  -1  -5  -7    6.42    0.48
  -1  -5  -7    5.95    0.40
  -1  -5  -7    6.20    0.41
   1   5   7    6.35    0.40
   1   5   7    5.76    0.40
  -2  -5  -7   13.21    0.69
  -2  -5  -7   14.74    0.67
   2   5   7   12.78    0.63
   2   5   7   13.74    0.63
  -3  -5  -7   -0.04    0.16
   3   5   7    0.07    0.11
   3   5   7    0.12    0.10
  -4  -5  -7    2.26    0.30
  -4  -5  -7    1.80    0.27
   4   5   7    2.05    0.21
   4   5   7    2.18    0.24
  -5  -5  -7    0.11    0.18
  -5  -5  -7    0.31    0.19
   5   5   7    0.94    0.17
   5   5   7    0.56    0.13
  -6  -5  -7    0.01    0.19
  -6  -5  -7    0.09    0.21
   6   5   7    0.09    0.08
   6   5   7    0.38    0.11
  -7  -5  -7    1.83    0.34
  -7  -5  -7    2.42    0.36
  -8  -5  -7   31.36    1.40
  -8  -5  -7   32.42    1.45
  -9  -5  -7    0.65    0.33
  -9  -5  -7    0.84    0.34
 -10  -5  -7    2.08    0.50
 -10  -5  -7    2.08    0.50
  10   5   7    2.21    0.40
 -11  -5  -7    2.82    0.58
 -11  -5  -7    2.95    0.65
  11   5   7    1.73    0.40
 -12  -5  -7    3.61    0.73
 -12  -5  -7    3.44    0.71
  12   5   7    2.74    0.57
 -13  -5  -7    0.15    0.59
 -13  -5  -7    0.12    0.60
   8  -6  -7    2.25    0.73
   7  -6  -7    1.04    0.55
   6  -6  -7   -0.01    0.40
   5  -6  -7    1.46    0.44
   4  -6  -7    4.42    0.63
   3  -6  -7    0.57    0.32
   2  -6  -7    9.81    0.73
   1  -6  -7    0.86    0.28
  -1   6   7    1.05    0.20
  -1   6   7    1.32    0.30
   0  -6  -7    5.53    0.49
   0   6   7    5.65    0.36
   0   6   7    5.98    0.37
  -1  -6  -7    8.13    0.55
   1   6   7    8.33    0.46
   1   6   7    8.87    0.44
  -2  -6  -7    0.71    0.23
  -2  -6  -7    0.68    0.14
  -2  -6  -7    0.99    0.20
   2   6   7    1.32    0.17
  -3  -6  -7    3.06    0.33
  -3  -6  -7    3.07    0.32
  -3  -6  -7    2.75    0.28
  -4  -6  -7    0.21    0.15
  -4  -6  -7    0.26    0.17
  -4  -6  -7    0.11    0.10
  -4  -6  -7    0.02    0.12
  -5  -6  -7    0.93    0.23
  -5  -6  -7    0.87    0.21
  -5  -6  -7    0.94    0.23
  -5  -6  -7    0.87    0.20
  -6  -6  -7    1.02    0.24
  -6  -6  -7    0.87    0.25
  -7  -6  -7    1.94    0.32
  -7  -6  -7    2.27    0.34
  -8  -6  -7    5.56    0.57
  -8  -6  -7    6.39    0.53
  -9  -6  -7    5.56    0.58
  -9  -6  -7    6.40    0.68
 -10  -6  -7    0.93    0.40
 -10  -6  -7    1.03    0.40
  10   6   7    0.76    0.26
 -11  -6  -7    2.70    0.56
 -11  -6  -7    3.24    0.60
 -12  -6  -7    0.81    0.54
 -12  -6  -7    0.21    0.48
 -13  -6  -7   -0.01    0.55
 -13  -6  -7    0.38    0.59
   7  -7  -7   -0.32    0.52
   6  -7  -7    0.04    0.51
   5  -7  -7    0.01    0.46
   4  -7  -7    1.39    0.45
   3  -7  -7   34.33    1.62
   2  -7  -7    7.69    0.68
   1  -7  -7    0.11    0.25
   0  -7  -7    0.21    0.24
  -1  -7  -7    2.02    0.32
  -2  -7  -7   21.63    0.95
  -2  -7  -7   20.53    0.93
  -3  -7  -7    6.42    0.46
  -3  -7  -7    7.60    0.45
  -3  -7  -7    6.52    0.44
  -4  -7  -7    2.64    0.31
  -4  -7  -7    2.72    0.32
  -4  -7  -7    2.71    0.31
  -5  -7  -7    1.67    0.26
  -5  -7  -7    1.71    0.26
  -5  -7  -7    1.96    0.28
  -6  -7  -7    2.66    0.33
  -6  -7  -7    2.39    0.31
  -7  -7  -7    0.99    0.25
  -7  -7  -7    0.84    0.24
  -8  -7  -7    3.23    0.40
  -8  -7  -7    2.48    0.39
  -9  -7  -7    0.73    0.29
  -9  -7  -7    1.32    0.35
 -10  -7  -7    0.84    0.36
 -10  -7  -7    0.75    0.36
 -11  -7  -7    0.42    0.42
 -11  -7  -7    0.19    0.39
 -12  -7  -7    0.36    0.51
 -12  -7  -7    1.44    0.53
 -13  -7  -7    0.20    0.54
 -13  -7  -7    0.24    0.61
   6  -8  -7    0.82    0.60
   5  -8  -7    1.58    0.64
   4  -8  -7   17.52    1.23
   3  -8  -7    2.12    0.52
   2  -8  -7   12.84    0.90
   1  -8  -7    0.01    0.27
   0  -8  -7    6.63    0.57
  -1  -8  -7   13.04    0.74
  -2  -8  -7   10.43    0.61
  -3  -8  -7    1.91    0.30
  -4  -8  -7    6.16    0.42
  -4  -8  -7    6.64    0.42
  -4  -8  -7    5.83    0.40
  -5  -8  -7    0.70    0.19
  -5  -8  -7    1.05    0.21
  -5  -8  -7    0.93    0.22
  -6  -8  -7    5.02    0.38
  -6  -8  -7    4.44    0.38
  -7  -8  -7    0.15    0.20
  -7  -8  -7    0.18    0.19
  -8  -8  -7    2.34    0.34
  -8  -8  -7    1.72    0.33
  -9  -8  -7    0.59    0.30
  -9  -8  -7    0.58    0.28
 -10  -8  -7    0.13    0.31
 -10  -8  -7   -0.03    0.30
 -11  -8  -7   -0.05    0.37
 -11  -8  -7    0.23    0.36
 -12  -8  -7    1.47    0.51
 -12  -8  -7    1.49    0.50
 -13  -8  -7    0.82    0.57
 -13  -8  -7   -0.11    0.53
   5  -9  -7    0.02    0.55
   4  -9  -7    0.45    0.51
   3  -9  -7   13.12    1.05
   2  -9  -7    3.82    0.58
   1  -9  -7    0.17    0.33
   0  -9  -7    3.23    0.48
  -1  -9  -7    0.28    0.27
  -2  -9  -7    5.21    0.46
  -3  -9  -7   35.36    1.40
  -5  -9  -7    3.23    0.33
  -6  -9  -7    4.67    0.36
  -7  -9  -7    1.48    0.26
  -8  -9  -7    1.96    0.30
  -8  -9  -7    1.97    0.31
  -9  -9  -7    7.98    0.60
  -9  -9  -7    8.22    0.58
 -10  -9  -7    0.82    0.34
 -10  -9  -7    0.59    0.32
 -11  -9  -7    3.97    0.55
 -11  -9  -7    4.43    0.57
 -12  -9  -7    0.50    0.46
 -12  -9  -7    0.35    0.45
 -13  -9  -7    0.23    0.50
 -13  -9  -7    0.11    0.51
   4 -10  -7    0.94    0.62
   3 -10  -7    1.84    0.60
   2 -10  -7   -0.07    0.43
   1 -10  -7    2.33    0.49
   0 -10  -7    0.88    0.37
  -1 -10  -7    3.39    0.46
  -2 -10  -7    0.37    0.27
  -3 -10  -7    1.71    0.32
  -6 -10  -7    0.76    0.21
  -7 -10  -7    2.58    0.28
  -8 -10  -7    1.48    0.26
  -9 -10  -7    1.82    0.32
 -10 -10  -7   -0.25    0.27
 -11 -10  -7    4.83    0.56
 -11 -10  -7    4.55    0.55
 -12 -10  -7    7.06    0.72
 -12 -10  -7    8.70    0.83
 -13 -10  -7   -0.18    0.50
 -13 -10  -7    0.82    0.54
   2 -11  -7    6.47    0.82
   1 -11  -7    2.00    0.54
   0 -11  -7    0.41    0.38
  -1 -11  -7    0.17    0.34
  -2 -11  -7    4.59    0.49
  -3 -11  -7    1.86    0.33
  -7 -11  -7    0.14    0.17
  -8 -11  -7    2.43    0.27
  -9 -11  -7    0.07    0.22
 -10 -11  -7    1.50    0.34
 -11 -11  -7    1.67    0.41
 -12 -11  -7   -0.10    0.40
   1 -12  -7    0.05    0.50
   0 -12  -7    0.10    0.43
  -1 -12  -7    0.12    0.40
  -2 -12  -7    0.60    0.37
 -10 -12  -7    2.53    0.33
 -11 -12  -7    5.27    0.50
  -1 -13  -7   -0.02    0.44
  -2 -13  -7    4.13    0.56
  -7  -7   8   -1.13    0.63
  -7  -7   8   -0.02    0.65
  -6  -7   8   -0.34    0.65
  -6  -7   8   -0.07    0.60
  -5  -7   8    0.76    0.66
  -5  -7   8    0.74    0.62
  -4  -7   8   -0.14    0.62
  -4  -7   8    0.68    0.65
  -3  -7   8    1.69    0.68
  -3  -7   8    1.46    0.68
  -2  -7   8    0.12    0.58
  -2  -7   8    0.18    0.66
  -1  -7   8   -0.28    0.66
  -1  -7   8    0.63    0.62
   0  -7   8    0.90    0.74
   0  -7   8    1.15    0.72
   1  -7   8    1.94    0.81
   1  -7   8    0.53    0.67
  -8  -6   8    6.61    0.98
  -8  -6   8    5.66    0.92
  -7  -6   8    1.14    0.66
  -7  -6   8   -0.12    0.56
  -6  -6   8    1.56    0.63
  -6  -6   8   -0.14    0.60
  -5  -6   8    1.56    0.67
  -5  -6   8    2.40    0.64
  -4  -6   8    0.75    0.58
  -4  -6   8    0.89    0.58
  -3  -6   8    5.60    0.86
  -3  -6   8    5.48    0.79
  -2  -6   8    1.56    0.60
  -2  -6   8    2.28    0.65
  -1  -6   8    2.34    0.65
  -1  -6   8    3.06    0.72
   0  -6   8    0.71    0.55
   0  -6   8    1.09    0.59
   1  -6   8    0.76    0.70
   1  -6   8    0.27    0.63
   2  -6   8    2.13    0.69
   2  -6   8    1.23    0.70
   3  -6   8    1.23    0.73
   3  -6   8    0.34    0.67
  -9  -5   8   -0.35    0.54
  -9  -5   8    0.88    0.64
  -8  -5   8    2.46    0.67
  -8  -5   8    2.26    0.69
  -7  -5   8    2.49    0.70
  -7  -5   8    1.61    0.62
  -6  -5   8    0.15    0.51
  -6  -5   8   -0.03    0.45
  -5  -5   8    1.29    0.51
  -5  -5   8    1.47    0.60
  -4  -5   8    1.49    0.50
  -4  -5   8    1.59    0.59
  -3  -5   8   -0.39    0.45
  -3  -5   8    0.01    0.41
  -2  -5   8   -0.09    0.42
  -2  -5   8    0.64    0.52
  -1  -5   8   -0.06    0.49
  -1  -5   8    0.54    0.48
   0  -5   8    4.92    0.81
   0  -5   8    3.46    0.71
   1  -5   8   14.59    1.17
   1  -5   8   12.22    1.13
   2  -5   8    0.93    0.61
   2  -5   8    1.26    0.55
   3  -5   8    3.61    0.77
   3  -5   8    3.17    0.80
   4  -5   8   -0.26    0.58
   4  -5   8   -0.32    0.61
   5  -5   8   -0.29    0.62
   5  -5   8    0.32    0.75
  -9  -4   8    1.69    0.69
  -9  -4   8    1.91    0.65
  -8  -4   8    6.60    0.86
  -8  -4   8    5.99    0.85
  -7  -4   8    1.18    0.52
  -7  -4   8    0.62    0.53
  -6  -4   8    0.95    0.53
  -6  -4   8    0.79    0.47
  -5  -4   8    1.19    0.47
  -5  -4   8    0.70    0.48
  -4  -4   8    0.60    0.42
  -4  -4   8    0.79    0.48
  -3  -4   8    1.06    0.51
  -3  -4   8    1.48    0.48
  -2  -4   8    4.22    0.67
  -2  -4   8    3.68    0.62
  -1  -4   8    0.37    0.43
  -1  -4   8   -0.30    0.31
   0  -4   8    3.77    0.63
   0  -4   8    3.59    0.62
   1  -4   8    0.49    0.45
   1  -4   8   -0.13    0.46
   2  -4   8    2.08    0.60
   2  -4   8    1.72    0.57
   3  -4   8    0.85    0.55
   3  -4   8    1.28    0.55
   4  -4   8    1.09    0.62
   4  -4   8    1.90    0.68
   5  -4   8    0.99    0.65
   5  -4   8    2.14    0.65
   6  -4   8   -0.56    0.63
   6  -4   8    2.24    1.00
  -5  -3   8    0.16    0.39
  -5  -3   8    0.40    0.44
  -4  -3   8    4.84    0.63
  -4  -3   8    4.89    0.65
  -3  -3   8    2.53    0.48
  -3  -3   8    2.42    0.54
  -2  -3   8    8.22    0.75
  -2  -3   8    6.96    0.73
  -1  -3   8    4.09    0.60
  -1  -3   8    3.78    0.55
   0  -3   8    3.78    0.58
   0  -3   8    4.35    0.60
   1  -3   8   39.35    1.81
   1  -3   8   37.84    1.78
   2  -3   8    7.96    0.83
   2  -3   8    8.09    0.82
   3  -3   8    1.95    0.54
   3  -3   8    1.62    0.49
   4  -3   8    1.03    0.49
   4  -3   8    1.05    0.52
   5  -3   8    0.04    0.46
   5  -3   8    0.23    0.48
   6  -3   8    5.91    0.84
   6  -3   8    4.82    0.79
   7  -3   8    0.82    0.58
 -10  -2   8    2.41    0.74
 -10  -2   8    1.39    0.75
  -9  -2   8    1.46    0.60
  -9  -2   8    1.74    2.06
  -9  -2   8    2.40    0.68
  -8  -2   8    1.33    0.52
  -8  -2   8    0.54    0.55
  -8  -2   8   -0.86    1.92
  -7  -2   8    2.53    0.59
  -7  -2   8    3.90    0.66
  -7  -2   8    3.10    1.81
  -6  -2   8    0.80    0.43
  -6  -2   8   -0.18    1.15
  -6  -2   8    1.13    0.46
  -4  -2   8   -0.11    0.33
  -4  -2   8    0.07    0.36
  -4  -2   8    0.85    0.46
   3   2  -8    2.83    0.40
   3   2  -8    2.93    0.40
  -3  -2   8    3.40    0.53
  -3  -2   8    3.32    0.54
   2   2  -8    8.94    0.62
   2   2  -8    9.23    0.64
  -2  -2   8    9.01    0.79
  -2  -2   8   10.04    0.77
   1   2  -8    4.54    0.47
   1   2  -8    4.32    0.50
  -1  -2   8    3.18    0.50
  -1  -2   8    3.03    0.44
   0   2  -8    1.30    0.28
   0   2  -8    0.36    0.21
   0  -2   8    0.78    0.30
   0  -2   8    0.87    0.40
  -1   2  -8    0.55    0.22
  -1   2  -8    0.54    0.27
   1  -2   8    0.72    0.33
   1  -2   8    0.32    0.35
  -2   2  -8    1.40    0.31
  -2   2  -8    0.91    0.28
   2  -2   8    1.57    0.46
   2  -2   8    1.22    0.43
  -3   2  -8    1.86    0.42
   3  -2   8    0.92    0.40
   3  -2   8    0.82    0.38
  -4   2  -8    1.85    0.42
   4  -2   8    1.78    0.47
   4  -2   8    1.96    0.50
   5  -2   8    0.16    0.42
   5  -2   8    0.59    0.38
   6  -2   8    5.53    0.81
   6  -2   8    4.90    0.71
   7  -2   8    1.44    0.65
   8  -2   8    1.01    0.70
 -10  -1   8   -0.12    0.59
 -10  -1   8   -0.52    0.53
  -9  -1   8   -0.28    0.49
  -9  -1   8    0.08    0.54
  -8  -1   8    1.62    0.55
  -8  -1   8    2.00    0.63
  -8  -1   8    0.84    2.10
  -7  -1   8   -0.07    0.40
  -7  -1   8   -2.21    1.57
  -7  -1   8   -0.03    0.42
  -6  -1   8    0.48    0.39
  -6  -1   8   -0.64    1.35
  -6  -1   8    0.51    0.44
   5   1  -8    0.49    0.30
  -5  -1   8    0.51    0.97
  -5  -1   8    0.39    0.39
  -5  -1   8    0.91    0.41
   4   1  -8   21.90    1.11
  -4  -1   8   23.36    2.80
  -4  -1   8   22.29    1.18
  -4  -1   8   21.25    1.19
   3   1  -8    6.58    0.54
  -3  -1   8    5.84    0.66
  -3  -1   8    7.07    0.72
  -3  -1   8    5.16    0.88
   2   1  -8    2.93    0.44
  -2  -1   8    2.70    0.45
  -2  -1   8    2.20    0.45
   1   1  -8    2.76    0.38
   1   1  -8    2.27    0.34
   1   1  -8    2.24    0.35
  -1  -1   8    1.95    0.41
  -1  -1   8    2.86    0.44
   0   1  -8    4.08    0.45
   0   1  -8    4.07    0.48
   0  -1   8    3.20    0.47
   0  -1   8    3.38    0.46
  -1   1  -8   57.83    2.24
  -1   1  -8   56.27    2.21
   1  -1   8   54.58    2.28
   1  -1   8   58.77    2.28
  -2   1  -8   20.91    1.05
  -2   1  -8   21.82    1.10
   2  -1   8   22.31    1.17
   2  -1   8   24.03    1.18
  -3   1  -8   19.51    1.01
  -3   1  -8   21.34    1.08
   3  -1   8   20.02    1.12
   3  -1   8   20.24    1.11
  -4   1  -8   10.38    0.73
  -4   1  -8   11.24    0.77
   4  -1   8   10.98    0.83
   4  -1   8   11.52    0.87
  -5   1  -8    6.76    0.60
  -5   1  -8    5.44    0.62
   5  -1   8    6.33    0.68
   5  -1   8    6.34    0.71
  -6   1  -8    0.62    0.33
  -6   1  -8   -0.29    0.27
   6  -1   8    0.21    0.39
   6  -1   8   -0.25    0.41
  -7   1  -8    0.62    0.39
   7  -1   8    1.45    0.58
   9  -1   8   -0.20    0.61
 -10   0   8   -0.26    2.72
 -10   0   8    1.36    0.62
  -9   0   8   -1.37    2.46
  -9   0   8    0.85    0.63
  -9   0   8    0.71    0.56
  -8   0   8    0.51    0.49
  -8   0   8    0.16    0.45
  -7   0   8    3.14    0.57
  -7   0   8    3.05    1.78
  -7   0   8    3.30    0.59
   6   0  -8    0.91    0.35
  -6   0   8    0.94    0.41
  -6   0   8    1.37    1.36
  -6   0   8    0.59    0.42
   5   0  -8    3.52    0.46
  -5   0   8    5.67    0.68
  -5   0   8    4.06    1.33
  -5   0   8    4.39    0.58
   4   0  -8    0.65    0.27
  -4   0   8    0.67    0.36
  -4   0   8    0.26    0.83
  -4   0   8    1.09    0.39
   3   0  -8    1.01    0.32
  -3   0   8    0.89    0.35
  -3   0   8    0.51    0.73
  -3   0   8    0.93    0.36
   1   0  -8   16.75    0.89
  -1   0   8   16.23    0.92
  -1   0   8   16.70    0.92
   0   0  -8    6.49    0.49
   0   0  -8    6.47    0.54
   0   0  -8    5.29    0.50
   0   0   8    5.84    0.58
   0   0   8    6.06    0.56
  -1   0  -8   86.11    3.11
  -1   0  -8   83.67    3.07
   1   0   8   81.26    3.11
   1   0   8   82.77    3.13
  -2   0  -8    2.67    0.40
  -2   0  -8    2.76    0.41
   2   0   8    2.48    0.42
   2   0   8    2.08    0.41
  -3   0  -8    4.92    0.51
  -3   0  -8    4.56    0.50
   3   0   8    2.86    0.42
   3   0   8    4.12    0.52
  -4   0  -8    7.10    0.59
  -4   0  -8    9.32    0.68
   4   0   8    7.78    0.68
   4   0   8    8.24    0.67
  -5   0  -8   15.11    0.89
  -5   0  -8   15.21    0.92
   5   0   8   15.06    0.96
   5   0   8   14.01    0.91
  -6   0  -8    0.69    0.37
  -6   0  -8    1.61    0.41
   6   0   8    0.87    0.36
   6   0   8    1.47    0.44
  -7   0  -8    6.35    0.71
  -7   0  -8    6.85    0.80
   7   0   8    7.59    0.86
  -8   0  -8    0.30    0.41
  -8   0  -8    0.48    0.39
  -9   0  -8    2.00    0.60
   9   0   8    0.77    0.57
  10   0   8   -0.13    0.59
  -9   1   8    6.12    2.86
  -9   1   8    5.40    0.87
  -8   1   8    3.74    0.67
  -8   1   8    4.93    0.82
  -7   1   8    6.21    0.73
  -7   1   8    5.94    0.75
   6  -1  -8    8.14    0.72
  -6   1   8    7.97    0.77
  -6   1   8    8.22    0.79
   5  -1  -8    2.04    0.41
  -5   1   8    1.78    0.43
  -5   1   8    2.66    0.47
   4  -1  -8    4.15    0.49
  -4   1   8    4.91    0.57
  -4   1   8    4.71    0.53
   3  -1  -8    2.41    0.41
  -3   1   8    2.63    0.42
  -3   1   8    2.83    0.44
   2  -1  -8    1.46    0.33
  -2   1   8    1.65    0.36
  -2   1   8    1.85    0.36
   1  -1  -8    1.43    0.29
  -1   1   8    1.67    0.35
  -1   1   8    1.01    0.32
   0  -1  -8    2.76    0.37
   0   1   8    3.71    0.46
   0   1   8    2.87    0.41
  -1  -1  -8   23.03    1.07
  -1  -1  -8   22.27    1.04
   1   1   8   23.07    1.07
   1   1   8   22.44    1.08
  -2  -1  -8   16.01    0.85
  -2  -1  -8   16.14    0.83
   2   1   8   16.53    0.88
   2   1   8   15.19    0.85
  -3  -1  -8    0.83    0.28
  -3  -1  -8    0.62    0.23
   3   1   8    0.65    0.28
   3   1   8    0.56    0.25
  -4  -1  -8    1.95    0.36
  -4  -1  -8    2.57    0.39
   4   1   8    1.98    0.37
   4   1   8    2.33    0.43
  -5  -1  -8   15.08    0.89
  -5  -1  -8   13.81    0.83
   5   1   8   15.33    0.90
   5   1   8   14.52    0.88
  -6  -1  -8    4.86    0.57
  -6  -1  -8    3.66    0.51
   6   1   8    5.20    0.59
   6   1   8    3.78    0.54
  -7  -1  -8   22.53    1.19
  -7  -1  -8   24.27    1.30
   7   1   8   22.74    1.25
  -8  -1  -8   17.86    1.11
  -8  -1  -8   16.48    1.13
  -9  -1  -8    0.87    0.42
  -9  -1  -8    0.63    0.45
 -10  -1  -8    9.18    0.97
 -10  -1  -8    9.77    1.05
  10   1   8    8.06    0.94
 -11  -1  -8    0.21    0.60
  11   1   8    0.67    0.67
  -8   2   8    1.07    0.54
   7  -2  -8    3.09    0.61
  -7   2   8    2.72    0.58
  -7   2   8    2.87    0.57
   6  -2  -8    3.93    0.63
  -6   2   8    3.59    0.57
  -6   2   8    3.59    0.60
   5  -2  -8    0.21    0.26
  -5   2   8   -0.01    0.31
  -5   2   8   -0.55    0.27
   4  -2  -8    2.20    0.38
  -4   2   8    3.37    0.47
  -4   2   8    3.50    0.52
   3  -2  -8    3.30    0.45
  -3   2   8    4.82    0.52
  -3   2   8    3.28    0.44
   2  -2  -8   -0.18    0.21
  -2   2   8    0.46    0.27
  -2   2   8    0.18    0.24
   1  -2  -8    2.33    0.35
  -1   2   8    2.20    0.35
  -1   2   8    2.16    0.36
   0  -2  -8    1.11    0.27
   0   2   8    1.54    0.28
   0   2   8    1.85    0.35
  -1  -2  -8   40.41    1.68
   1   2   8   40.83    1.68
   1   2   8   43.32    1.67
  -2  -2  -8    0.55    0.22
  -2  -2  -8    0.81    0.28
   2   2   8    0.94    0.28
   2   2   8    0.37    0.19
  -3  -2  -8    2.17    0.34
  -3  -2  -8    2.60    0.40
   3   2   8    2.06    0.31
   3   2   8    2.25    0.36
  -4  -2  -8    3.93    0.48
  -4  -2  -8    3.80    0.44
   4   2   8    3.69    0.43
   4   2   8    2.50    0.35
  -5  -2  -8    3.40    0.42
  -5  -2  -8    2.03    0.36
   5   2   8    1.69    0.32
   5   2   8    3.01    0.41
  -6  -2  -8   11.38    0.74
  -6  -2  -8   11.66    0.79
   6   2   8   11.88    0.73
   6   2   8   11.85    0.76
  -7  -2  -8    1.85    0.43
  -7  -2  -8    2.48    0.45
  -8  -2  -8    0.97    0.39
  -8  -2  -8    1.28    0.42
  -9  -2  -8    1.27    0.46
  -9  -2  -8    2.54    0.54
 -10  -2  -8    2.41    0.63
 -10  -2  -8    3.12    0.62
  10   2   8    3.02    0.63
 -11  -2  -8    0.98    0.54
 -11  -2  -8    0.27    0.62
  11   2   8    1.07    0.58
   7  -3  -8    0.00    0.34
   6  -3  -8    0.40    0.35
  -6   3   8    1.04    0.37
   5  -3  -8    0.16    0.33
  -5   3   8    0.29    0.28
  -5   3   8    0.26    0.28
   4  -3  -8    0.21    0.30
  -4   3   8   -0.20    0.25
  -4   3   8    0.65    0.29
   3  -3  -8   12.33    0.81
  -3   3   8   11.35    0.73
  -3   3   8   12.25    0.78
   2  -3  -8    0.20    0.25
  -2   3   8    0.10    0.21
  -2   3   8    0.17    0.22
   1  -3  -8   16.55    0.89
  -1   3   8   17.79    0.87
  -1   3   8   16.31    0.86
   0  -3  -8    0.71    0.23
   0   3   8    0.43    0.19
   0   3   8    0.31    0.23
  -2  -3  -8   35.05    1.46
  -2  -3  -8   35.30    1.46
   2   3   8   35.43    1.44
   2   3   8   35.51    1.45
  -3  -3  -8    2.22    0.33
  -3  -3  -8    1.87    0.31
   3   3   8    1.57    0.28
   3   3   8    1.29    0.24
  -4  -3  -8    4.23    0.41
  -4  -3  -8    3.62    0.41
   4   3   8    3.79    0.44
   4   3   8    3.44    0.38
  -5  -3  -8    0.29    0.23
  -5  -3  -8    0.54    0.25
   5   3   8    0.37    0.22
   5   3   8    0.32    0.19
  -6  -3  -8   10.98    0.74
  -6  -3  -8   10.54    0.71
   6   3   8   10.85    0.68
   6   3   8   10.64    0.67
  -7  -3  -8    6.69    0.61
  -7  -3  -8    7.65    0.67
  -8  -3  -8    3.34    0.53
  -8  -3  -8    2.07    0.46
  -9  -3  -8   -0.09    0.36
  -9  -3  -8    0.79    0.48
 -10  -3  -8    4.23    0.71
 -10  -3  -8    3.29    0.62
 -11  -3  -8    0.04    0.51
 -11  -3  -8   -0.25    0.46
  11   3   8   -0.04    0.45
 -12  -3  -8    1.68    0.66
 -12  -3  -8    1.27    0.72
  12   3   8    1.73    0.62
   8  -4  -8    0.48    0.49
   7  -4  -8    0.73    0.46
   6  -4  -8    3.33    0.57
   5  -4  -8    3.35    0.58
  -5   4   8    3.78    0.58
   4  -4  -8    1.94    0.45
  -4   4   8    1.58    0.38
  -4   4   8    1.28    0.33
   3  -4  -8    0.48    0.27
  -3   4   8    0.89    0.26
  -3   4   8    1.52    0.32
   2  -4  -8   26.36    1.24
  -2   4   8   25.11    1.17
  -2   4   8   26.00    1.20
   1  -4  -8    1.41    0.32
  -1   4   8    2.46    0.34
  -1   4   8    1.91    0.35
   0  -4  -8   31.26    1.37
   0   4   8   32.89    1.33
   0   4   8   31.36    1.33
  -1  -4  -8   15.50    0.84
   1   4   8   16.62    0.81
   1   4   8   17.71    0.81
  -4  -4  -8    8.68    0.58
  -4  -4  -8    8.78    0.55
   4   4   8    8.52    0.54
   4   4   8    9.05    0.53
  -5  -4  -8    4.76    0.44
  -5  -4  -8    4.81    0.47
   5   4   8    4.41    0.39
   5   4   8    4.59    0.38
  -6  -4  -8    8.51    0.60
  -6  -4  -8    9.13    0.66
   6   4   8    7.66    0.63
  -7  -4  -8    8.90    0.67
  -7  -4  -8    9.81    0.71
  -8  -4  -8    0.30    0.32
  -8  -4  -8    0.74    0.37
  -9  -4  -8    1.49    0.44
  -9  -4  -8    2.63    0.50
 -10  -4  -8    2.24    0.53
 -10  -4  -8    1.35    0.52
 -11  -4  -8    1.33    0.60
 -11  -4  -8    2.16    0.59
  11   4   8    1.13    0.46
 -12  -4  -8    1.50    0.63
 -12  -4  -8    1.35    0.68
  12   4   8    0.38    0.48
   8  -5  -8    0.21    0.52
   7  -5  -8    3.40    0.70
   6  -5  -8    0.31    0.38
   5  -5  -8    7.98    0.88
   4  -5  -8    0.19    0.35
   3  -5  -8    6.33    0.65
   2  -5  -8   10.64    0.73
  -2   5   8    9.98    0.65
  -2   5   8   10.44    0.67
   1  -5  -8   13.34    0.80
  -1   5   8   13.02    0.70
  -1   5   8   14.01    0.74
   0  -5  -8    0.36    0.24
   0   5   8    0.61    0.20
   0   5   8    0.46    0.18
  -1  -5  -8   34.69    1.47
   1   5   8   36.23    1.41
   1   5   8   35.66    1.42
  -2  -5  -8    0.83    0.25
   2   5   8    1.31    0.23
   2   5   8    1.38    0.24
  -3  -5  -8   19.81    0.95
   3   5   8   20.66    0.89
   3   5   8   20.45    0.88
  -4  -5  -8    4.69    0.43
  -4  -5  -8    4.88    0.42
   4   5   8    4.85    0.35
   4   5   8    4.64    0.34
  -5  -5  -8    1.11    0.29
  -5  -5  -8    0.53    0.23
   5   5   8    0.78    0.16
   5   5   8    0.48    0.15
  -6  -5  -8    1.22    0.31
  -6  -5  -8    1.95    0.34
  -7  -5  -8   12.11    0.74
  -7  -5  -8   11.87    0.76
  -8  -5  -8    8.81    0.67
  -8  -5  -8    8.21    0.70
  -9  -5  -8    0.31    0.34
  -9  -5  -8   -0.34    0.31
 -10  -5  -8    0.67    0.46
 -10  -5  -8    1.46    0.51
 -11  -5  -8    8.23    0.90
 -11  -5  -8    9.79    0.94
  11   5   8    8.42    0.74
 -12  -5  -8    1.16    0.60
 -12  -5  -8    2.50    0.69
  12   5   8    2.27    0.52
   7  -6  -8    1.73    0.55
   6  -6  -8    0.13    0.42
   5  -6  -8   -0.14    0.41
   4  -6  -8    0.58    0.43
   3  -6  -8    1.21    0.36
   2  -6  -8    3.29    0.53
   1  -6  -8   -0.22    0.22
   0  -6  -8    6.36    0.56
  -1  -6  -8    2.02    0.34
   1   6   8    1.86    0.26
   1   6   8    2.33    0.23
  -2  -6  -8    0.01    0.21
   2   6   8    0.23    0.13
   2   6   8    0.39    0.11
  -3  -6  -8   -0.04    0.18
  -4  -6  -8   23.69    1.06
  -4  -6  -8   24.74    1.08
  -5  -6  -8    0.18    0.19
  -5  -6  -8    0.05    0.19
  -6  -6  -8   10.73    0.66
  -6  -6  -8   10.64    0.65
  -7  -6  -8    9.31    0.64
  -7  -6  -8    8.65    0.62
  -8  -6  -8    5.98    0.63
  -8  -6  -8    5.46    0.55
  -9  -6  -8    0.21    0.35
  -9  -6  -8   -0.05    0.30
 -10  -6  -8    3.25    0.57
 -10  -6  -8    3.95    0.61
 -11  -6  -8   -0.27    0.42
 -11  -6  -8   -0.10    0.41
  11   6   8    0.01    0.37
 -12  -6  -8    0.86    0.56
 -12  -6  -8    0.04    0.52
 -13  -6  -8   -1.07    0.61
 -13  -6  -8    0.65    0.63
   6  -7  -8    0.83    0.59
   5  -7  -8    2.12    0.59
   4  -7  -8    1.54    0.44
   3  -7  -8    2.18    0.54
   2  -7  -8    2.05    0.43
   1  -7  -8    0.12    0.28
   0  -7  -8    0.21    0.25
  -1  -7  -8    0.98    0.30
  -2  -7  -8    0.98    0.29
  -3  -7  -8    1.66    0.31
  -4  -7  -8    0.08    0.20
  -5  -7  -8    0.01    0.19
  -5  -7  -8    0.07    0.18
  -6  -7  -8    0.20    0.22
  -6  -7  -8   -0.04    0.21
  -7  -7  -8    0.21    0.25
  -7  -7  -8    0.32    0.23
  -8  -7  -8    0.85    0.32
  -8  -7  -8    0.97    0.31
  -9  -7  -8    0.79    0.36
  -9  -7  -8    0.91    0.35
 -10  -7  -8   -0.01    0.32
 -10  -7  -8    0.71    0.40
 -11  -7  -8    7.44    0.81
 -11  -7  -8    8.51    0.81
 -12  -7  -8    0.24    0.54
 -12  -7  -8    0.86    0.55
 -13  -7  -8    6.84    0.91
 -13  -7  -8    4.80    0.84
   6  -8  -8    3.63    0.84
   5  -8  -8    0.81    0.56
   4  -8  -8    4.24    0.71
   3  -8  -8    7.71    0.88
   2  -8  -8    4.46    0.58
   1  -8  -8   19.99    1.09
   0  -8  -8    1.07    0.35
  -1  -8  -8    0.48    0.27
  -2  -8  -8    6.40    0.54
  -3  -8  -8    8.05    0.56
  -4  -8  -8    1.38    0.28
  -5  -8  -8    3.39    0.38
  -6  -8  -8    7.67    0.52
  -6  -8  -8    7.38    0.50
  -7  -8  -8    1.94    0.32
  -7  -8  -8    1.43    0.31
  -8  -8  -8    2.04    0.36
  -8  -8  -8    2.80    0.40
  -9  -8  -8    0.80    0.33
  -9  -8  -8    0.77    0.35
 -10  -8  -8   -0.03    0.31
 -10  -8  -8    0.24    0.35
 -11  -8  -8    0.98    0.44
 -11  -8  -8    0.76    0.44
 -12  -8  -8    3.04    0.64
 -12  -8  -8    3.63    0.66
 -13  -8  -8    0.12    0.55
 -13  -8  -8    0.14    0.55
   5  -9  -8   -0.44    0.53
   4  -9  -8    0.31    0.51
   3  -9  -8    5.36    0.71
   2  -9  -8    7.72    0.84
   1  -9  -8    1.44    0.42
   0  -9  -8    1.16    0.36
  -1  -9  -8    1.12    0.33
  -2  -9  -8    1.03    0.31
  -3  -9  -8   12.51    0.72
  -4  -9  -8    3.80    0.41
  -5  -9  -8    7.64    0.50
  -6  -9  -8    0.12    0.20
  -6  -9  -8    0.06    0.20
  -7  -9  -8   -0.28    0.20
  -7  -9  -8   -0.01    0.22
  -8  -9  -8    0.16    0.25
  -8  -9  -8   -0.10    0.25
  -9  -9  -8    0.38    0.29
  -9  -9  -8    0.26    0.30
 -10  -9  -8    0.56    0.35
 -10  -9  -8    0.19    0.34
 -11  -9  -8    7.80    0.75
 -11  -9  -8    7.82    0.78
 -12  -9  -8    0.40    0.48
 -12  -9  -8    1.25    0.51
 -13  -9  -8    3.59    0.72
 -13  -9  -8    4.83    0.78
   3 -10  -8    2.32    0.62
   2 -10  -8    0.03    0.47
   1 -10  -8    8.20    0.80
   0 -10  -8    0.02    0.33
  -1 -10  -8    0.49    0.32
  -2 -10  -8    3.63    0.46
  -3 -10  -8    0.07    0.25
  -4 -10  -8   -0.21    0.22
  -6 -10  -8    0.78    0.25
  -7 -10  -8    3.91    0.39
  -8 -10  -8   -0.14    0.23
  -9 -10  -8    1.20    0.34
 -10 -10  -8    0.38    0.34
 -10 -10  -8   -0.20    0.31
 -11 -10  -8    0.32    0.39
 -11 -10  -8   -0.16    0.37
 -12 -10  -8    2.35    0.55
 -12 -10  -8    1.92    0.52
   2 -11  -8   15.40    1.20
   1 -11  -8    1.43    0.50
   0 -11  -8    0.08    0.38
  -1 -11  -8    0.85    0.38
  -2 -11  -8    3.10    0.44
  -3 -11  -8    1.64    0.37
  -7 -11  -8    0.54    0.25
  -8 -11  -8    0.12    0.24
  -9 -11  -8    0.28    0.27
 -10 -11  -8    1.26    0.36
 -11 -11  -8    0.06    0.37
 -12 -11  -8    0.79    0.47
 -12 -11  -8    0.99    0.47
   1 -12  -8    0.14    0.50
   0 -12  -8    0.04    0.43
  -1 -12  -8    1.15    0.44
  -2 -12  -8    2.40    0.47
  -3 -12  -8    6.77    0.64
  -7 -12  -8    4.25    0.39
  -8 -12  -8    0.08    0.21
  -9 -12  -8    0.34    0.25
 -10 -12  -8   -0.03    0.30
 -11 -12  -8    0.92    0.39
  -1 -13  -8   -0.36    0.44
  -2 -13  -8    0.33    0.41
  -6  -6   9    0.62    0.69
  -6  -6   9    0.69    0.73
  -5  -6   9    0.49    0.65
  -5  -6   9    2.11    0.75
  -4  -6   9    0.33    0.65
  -4  -6   9   -0.30    0.64
  -3  -6   9    0.31    0.61
  -3  -6   9    0.81    0.74
  -2  -6   9    0.80    0.62
  -2  -6   9    0.78    0.67
  -1  -6   9    1.19    0.68
  -1  -6   9    0.10    0.60
   0  -6   9    0.11    0.65
   0  -6   9    0.39    0.60
   1  -6   9    0.27    0.67
   1  -6   9    0.07    0.64
  -8  -5   9    0.11    0.67
  -8  -5   9   -0.37    0.70
  -7  -5   9    2.42    0.79
  -7  -5   9    3.62    0.82
  -6  -5   9    0.69    0.66
  -6  -5   9    1.08    0.70
  -5  -5   9    0.14    0.56
  -5  -5   9   -0.05    0.62
  -4  -5   9    5.15    0.83
  -4  -5   9    5.88    0.84
  -3  -5   9    0.67    0.59
  -3  -5   9   -0.38    0.55
  -2  -5   9    0.42    0.57
  -2  -5   9    1.03    0.58
  -1  -5   9    0.12    0.56
  -1  -5   9    1.11    0.61
   0  -5   9    2.29    0.67
   0  -5   9    2.52    0.73
   1  -5   9    2.61    0.74
   1  -5   9    4.81    0.88
   2  -5   9    0.29    0.62
   2  -5   9    0.23    0.57
   3  -5   9    1.90    0.71
   3  -5   9    0.59    0.66
  -8  -4   9    0.84    0.66
  -8  -4   9    0.37    0.59
  -7  -4   9    9.21    1.05
  -7  -4   9   10.82    1.11
  -6  -4   9    1.48    0.60
  -6  -4   9    1.54    0.63
  -5  -4   9    1.65    0.63
  -5  -4   9    1.17    0.59
  -4  -4   9    1.09    0.53
  -4  -4   9    0.67    0.57
  -3  -4   9    3.73    0.69
  -3  -4   9    2.88    0.61
  -2  -4   9   -0.05    0.41
  -2  -4   9    0.34    0.51
  -1  -4   9    0.70    0.52
  -1  -4   9    0.38    0.47
   0  -4   9    0.58    0.52
   0  -4   9    0.74    0.50
   1  -4   9    0.39    0.52
   1  -4   9    1.17    0.57
   2  -4   9    0.16    0.53
   2  -4   9   -0.16    0.50
   3  -4   9    2.58    0.64
   3  -4   9    2.68    0.72
   4  -4   9    4.25    0.83
   4  -4   9    4.55    0.80
   5  -4   9    5.40    0.90
   5  -4   9    5.45    0.94
  -9  -3   9    1.25    0.63
  -9  -3   9    0.40    0.59
  -8  -3   9    1.65    0.64
  -8  -3   9    0.97    0.60
  -7  -3   9    4.29    0.75
  -7  -3   9    3.87    0.75
  -6  -3   9    0.49    0.48
  -6  -3   9    0.84    0.56
  -5  -3   9    0.34    0.49
  -5  -3   9   -0.23    0.47
  -4  -3   9    2.55    0.61
  -4  -3   9    1.44    0.52
  -3  -3   9    1.09    0.46
  -3  -3   9    0.39    0.49
  -2  -3   9    1.97    0.54
  -2  -3   9    2.25    0.49
  -1  -3   9    1.78    0.56
  -1  -3   9    0.86    0.51
   0  -3   9    6.05    0.77
   0  -3   9    4.38    0.68
   1  -3   9    2.80    0.61
   1  -3   9    2.56    0.58
   2  -3   9    2.30    0.59
   2  -3   9    3.78    0.63
   3  -3   9    0.65    0.54
   3  -3   9    1.31    0.57
   4  -3   9    1.95    0.63
   4  -3   9    3.16    0.66
   5  -3   9    0.60    0.51
   5  -3   9    0.41    0.57
   6  -3   9    2.27    0.66
  -8  -2   9    1.08    0.60
  -8  -2   9    4.09    1.64
  -8  -2   9    0.56    0.60
  -7  -2   9   11.37    1.12
  -7  -2   9   10.65    1.06
  -6  -2   9    3.48    0.66
  -6  -2   9    3.34    0.65
  -5  -2   9    1.36    0.52
  -5  -2   9    2.29    0.59
  -4  -2   9    1.16    0.44
  -4  -2   9    0.71    0.46
  -3  -2   9    0.57    0.45
  -3  -2   9    0.61    0.43
  -2  -2   9    0.95    0.46
  -2  -2   9    0.54    0.41
  -1  -2   9    1.34    0.45
  -1  -2   9    0.87    0.41
   0  -2   9    1.88    0.48
   0  -2   9    1.20    0.43
   1  -2   9    5.06    0.65
   1  -2   9    5.63    0.72
   2  -2   9    0.72    0.45
   2  -2   9    0.78    0.37
   3  -2   9   -0.13    0.36
   3  -2   9   -0.56    0.37
   4  -2   9   -0.08    0.45
   4  -2   9   -0.13    0.40
   5  -2   9    1.19    0.54
   5  -2   9    0.92    0.46
   6  -2   9    0.90    0.59
  -9  -1   9    0.21    0.57
  -9  -1   9    0.48    0.63
  -9  -1   9   -1.79    2.09
  -8  -1   9    4.20    0.77
  -8  -1   9    3.16    0.72
  -8  -1   9    5.23    2.25
  -7  -1   9    1.76    0.60
  -7  -1   9    1.63    1.81
  -7  -1   9    0.61    0.49
  -6  -1   9   -2.02    1.34
  -6  -1   9    0.32    0.45
  -6  -1   9   -0.30    0.42
  -5  -1   9    0.42    1.04
  -5  -1   9    0.49    0.41
  -5  -1   9    0.14    0.38
  -4  -1   9   -0.09    0.36
  -4  -1   9   -0.04    0.34
   3   1  -9    1.48    0.35
  -3  -1   9    2.04    0.49
  -3  -1   9    1.75    0.48
   2   1  -9    0.20    0.17
   2   1  -9   -0.12    0.17
   2   1  -9    0.09    0.18
  -2  -1   9    0.10    0.38
  -2  -1   9   -0.43    0.31
   1   1  -9    1.10    0.29
   1   1  -9    0.43    0.25
  -1  -1   9    0.36    0.38
  -1  -1   9    0.15    0.34
   0   1  -9    0.95    0.32
   0   1  -9    0.38    0.24
   0  -1   9    0.79    0.39
   0  -1   9    0.97    0.41
  -1   1  -9    5.10    0.49
  -1   1  -9    5.29    0.54
   1  -1   9    4.88    0.62
   1  -1   9    5.77    0.65
  -2   1  -9    3.95    0.50
  -2   1  -9    3.73    0.47
   2  -1   9    2.98    0.51
   2  -1   9    3.39    0.52
  -3   1  -9    5.00    0.64
  -3   1  -9    5.71    0.62
   3  -1   9    4.18    0.56
   3  -1   9    4.04    0.60
  -4   1  -9    1.21    0.33
  -4   1  -9    2.62    0.45
   4  -1   9    2.45    0.54
   4  -1   9    2.79    0.61
  -5   1  -9    1.63    0.42
   5  -1   9    2.31    0.60
   5  -1   9    1.33    0.48
  -6   1  -9    0.22    0.37
   6  -1   9    1.27    0.50
  -9   0   9   -0.67    0.55
  -9   0   9   -0.81    2.22
  -8   0   9    2.59    0.65
  -8   0   9    0.59    0.56
  -8   0   9    2.05    2.03
  -7   0   9    5.46    0.77
  -7   0   9    4.91    0.76
  -6   0   9    0.18    1.17
  -6   0   9    0.91    0.47
  -6   0   9    0.65    0.44
   5   0  -9    0.31    0.30
  -5   0   9    0.02    0.38
  -5   0   9   -0.92    0.79
  -5   0   9    0.83    0.41
   4   0  -9    0.01    0.23
  -4   0   9    0.66    0.72
  -4   0   9   -0.18    0.33
  -4   0   9    0.22    0.36
   2   0  -9   10.29    0.72
  -2   0   9    9.89    0.78
  -2   0   9   10.35    0.82
   1   0  -9    2.67    0.41
   1   0  -9    2.51    0.37
   1   0  -9    2.67    0.41
  -1   0   9    2.52    0.49
  -1   0   9    2.00    0.42
   0   0  -9   27.17    1.31
   0   0  -9   29.32    1.30
   0   0   9   28.34    1.36
   0   0   9   29.06    1.38
  -1   0  -9   16.08    0.93
  -1   0  -9   17.20    0.90
   1   0   9   17.09    0.98
   1   0   9   16.82    0.98
  -2   0  -9   16.18    0.91
  -2   0  -9   16.40    0.94
   2   0   9   17.42    0.98
   2   0   9   16.32    0.99
  -3   0  -9    6.58    0.57
  -3   0  -9    7.50    0.74
   3   0   9    6.29    0.64
   3   0   9    5.88    0.63
  -4   0  -9    0.19    0.27
  -4   0  -9    0.81    0.30
   4   0   9    0.15    0.35
   4   0   9    0.44    0.32
  -5   0  -9    1.00    0.35
  -5   0  -9    1.82    0.41
   5   0   9    1.06    0.45
   5   0   9    0.68    0.38
  -6   0  -9    0.29    0.31
  -6   0  -9    0.12    0.31
   6   0   9    0.35    0.40
  -7   0  -9    1.28    0.45
  -7   0  -9    2.19    0.56
  -8   0  -9    0.44    0.47
  -9   1   9   -1.55    2.38
  -9   1   9   -0.15    0.63
  -8   1   9    1.69    0.60
  -8   1   9    0.38    2.29
  -7   1   9    2.13    0.59
  -7   1   9    3.70    0.67
   6  -1  -9    0.40    0.31
  -6   1   9   -0.16    0.38
  -6   1   9    0.66    0.40
   5  -1  -9    0.07    0.27
  -5   1   9   -0.11    0.32
  -5   1   9    0.60    0.39
   4  -1  -9    1.89    0.44
  -4   1   9    1.97    0.44
  -4   1   9    2.70    0.48
   3  -1  -9   10.42    0.75
  -3   1   9   11.64    0.82
  -3   1   9   10.99    0.82
   2  -1  -9    4.70    0.57
  -2   1   9    4.49    0.54
  -2   1   9    4.51    0.56
   1  -1  -9    8.66    0.66
  -1   1   9    9.67    0.73
  -1   1   9    8.77    0.69
   0  -1  -9    1.67    0.36
   0  -1  -9    1.47    0.34
   0   1   9    1.08    0.31
   0   1   9    1.50    0.39
  -1  -1  -9    1.02    0.30
  -1  -1  -9    1.38    0.31
   1   1   9    1.33    0.37
   1   1   9    1.67    0.38
  -2  -1  -9   18.87    0.99
  -2  -1  -9   18.36    0.95
   2   1   9   17.95    1.00
   2   1   9   19.56    1.01
  -3  -1  -9   31.58    1.43
  -3  -1  -9   31.30    1.45
   3   1   9   31.98    1.47
   3   1   9   33.62    1.48
  -4  -1  -9    2.42    0.43
  -4  -1  -9    3.11    0.44
   4   1   9    3.22    0.48
   4   1   9    3.79    0.55
  -5  -1  -9    5.88    0.63
  -5  -1  -9    5.34    0.62
   5   1   9    5.24    0.58
   5   1   9    5.18    0.60
  -6  -1  -9    4.00    0.55
  -6  -1  -9    2.55    0.47
   6   1   9    2.88    0.47
  -7  -1  -9    1.31    0.42
  -7  -1  -9    0.71    0.45
  -8  -1  -9    0.84    0.43
  -8  -1  -9    0.19    0.43
  -9  -1  -9    1.39    0.55
  -9  -1  -9    1.57    0.55
 -10  -1  -9   -0.41    0.54
  10   1   9   -1.24    0.55
  -7   2   9   -0.36    0.39
   6  -2  -9    5.06    0.66
  -6   2   9    5.21    0.66
  -6   2   9    3.65    0.65
   5  -2  -9    3.11    0.51
  -5   2   9    3.55    0.55
  -5   2   9    4.00    0.58
   4  -2  -9   -0.33    0.24
  -4   2   9   -0.43    0.25
  -4   2   9    0.20    0.29
   3  -2  -9    3.52    0.49
  -3   2   9    3.87    0.52
  -3   2   9    4.24    0.53
   2  -2  -9    0.38    0.24
   1  -2  -9    1.39    0.31
   0  -2  -9   10.02    0.70
   0   2   9   10.24    0.71
   0   2   9   10.71    0.71
  -1  -2  -9   11.68    0.74
  -1  -2  -9   11.99    0.76
   1   2   9   11.49    0.73
   1   2   9   12.50    0.76
  -2  -2  -9   83.68    3.20
  -2  -2  -9   86.56    3.23
   2   2   9   87.46    3.24
   2   2   9   89.99    3.23
  -3  -2  -9    2.82    0.45
  -3  -2  -9    2.26    0.37
   3   2   9    2.57    0.41
   3   2   9    2.61    0.43
  -4  -2  -9    6.15    0.59
  -4  -2  -9    5.40    0.52
   4   2   9    5.91    0.55
   4   2   9    4.63    0.53
  -5  -2  -9    1.91    0.39
  -5  -2  -9    1.99    0.41
   5   2   9    1.84    0.39
   5   2   9    2.61    0.47
  -6  -2  -9    7.35    0.71
  -6  -2  -9    7.60    0.65
   6   2   9    8.19    0.69
  -7  -2  -9    8.81    0.80
  -7  -2  -9    7.51    0.74
  -8  -2  -9    2.47    0.56
  -8  -2  -9    2.45    0.54
  -9  -2  -9    5.13    0.72
  -9  -2  -9    6.00    0.83
 -10  -2  -9    0.56    0.46
 -10  -2  -9    0.01    0.52
 -11  -2  -9    1.03    0.68
 -11  -2  -9    0.00    0.55
  11   2   9   -0.03    0.56
   7  -3  -9    0.13    0.49
   6  -3  -9    1.28    0.42
  -6   3   9    1.65    0.48
   5  -3  -9   24.94    1.38
  -5   3   9   25.08    1.35
   4  -3  -9    3.24    0.49
  -4   3   9    4.17    0.56
  -4   3   9    4.86    0.61
   3  -3  -9   -0.01    0.25
  -3   3   9   -0.10    0.26
  -3   3   9    0.13    0.29
   2  -3  -9    0.17    0.24
  -2   3   9    0.50    0.28
  -2   3   9   -0.23    0.24
   1  -3  -9    6.34    0.60
  -1   3   9    6.47    0.58
  -1   3   9    7.60    0.58
  -1  -3  -9   13.13    0.77
   1   3   9   12.19    0.73
   1   3   9   11.76    0.71
  -2  -3  -9   10.60    0.71
  -2  -3  -9   11.36    0.72
  -2  -3  -9   12.80    0.77
   2   3   9   12.13    0.71
   2   3   9   11.69    0.72
  -3  -3  -9   73.31    2.74
  -3  -3  -9   71.30    2.70
   3   3   9   70.23    2.70
   3   3   9   72.83    2.70
  -4  -3  -9    2.03    0.35
  -4  -3  -9    2.63    0.38
   4   3   9    3.44    0.41
   4   3   9    1.96    0.32
  -5  -3  -9    0.82    0.29
  -5  -3  -9    0.99    0.32
   5   3   9    0.95    0.29
   5   3   9    1.40    0.29
  -6  -3  -9    0.38    0.32
  -6  -3  -9    0.27    0.30
  -7  -3  -9    2.64    0.48
  -7  -3  -9    2.37    0.45
  -8  -3  -9    4.88    0.72
  -8  -3  -9    4.79    0.66
  -9  -3  -9    0.31    0.41
  -9  -3  -9    0.01    0.41
 -10  -3  -9    4.13    0.78
 -10  -3  -9    3.99    0.70
 -11  -3  -9   -0.01    0.50
 -11  -3  -9    0.92    0.65
  11   3   9    0.34    0.51
   7  -4  -9   -0.20    0.42
   6  -4  -9    3.11    0.59
   5  -4  -9    2.03    0.51
   4  -4  -9    9.49    0.83
  -4   4   9   10.02    0.80
   3  -4  -9   17.82    1.05
  -3   4   9   16.28    0.97
  -3   4   9   18.82    1.35
   2  -4  -9    3.69    0.49
  -2   4   9    5.04    0.51
  -2   4   9    5.22    0.48
   1  -4  -9   10.16    0.74
  -1   4   9   10.90    0.69
  -1   4   9   10.21    0.68
   0  -4  -9    7.02    0.69
   0   4   9    5.16    0.47
   0   4   9    5.91    0.48
  -1  -4  -9    0.33    0.22
   1   4   9    0.23    0.24
   1   4   9    0.21    0.20
  -2  -4  -9   30.26    1.35
   2   4   9   30.58    1.30
   2   4   9   30.13    1.29
  -3  -4  -9    0.38    0.22
  -3  -4  -9    0.26    0.23
   3   4   9    0.22    0.19
   3   4   9    0.06    0.14
  -4  -4  -9   13.62    0.75
  -4  -4  -9   12.28    0.75
   4   4   9   12.24    0.68
   4   4   9   11.82    0.68
  -5  -4  -9    1.42    0.32
  -5  -4  -9    1.26    0.33
   5   4   9    1.64    0.33
  -6  -4  -9    0.24    0.27
  -6  -4  -9    0.35    0.31
  -7  -4  -9    1.69    0.40
  -7  -4  -9    1.64    0.39
  -8  -4  -9    8.47    0.86
  -8  -4  -9    8.75    0.77
  -9  -4  -9    0.08    0.41
  -9  -4  -9    0.54    0.38
 -10  -4  -9    0.08    0.46
 -10  -4  -9    1.10    0.49
 -11  -4  -9    0.16    0.49
 -11  -4  -9   -0.54    0.56
  11   4   9   -0.20    0.45
 -12  -4  -9    0.61    0.63
 -12  -4  -9    0.06    0.59
  12   4   9   -0.50    0.49
   7  -5  -9    1.13    0.50
   6  -5  -9    0.26    0.36
   5  -5  -9    0.09    0.35
   4  -5  -9    2.79    0.58
   3  -5  -9    4.87    0.66
   2  -5  -9    3.91    0.61
   1  -5  -9    4.75    0.59
  -1   5   9    4.83    0.52
   0  -5  -9    4.25    0.50
   0   5   9    4.96    0.42
   0   5   9    4.34    0.43
  -1  -5  -9    1.84    0.36
   1   5   9    1.99    0.32
   1   5   9    1.96    0.29
  -2  -5  -9   14.12    0.79
   2   5   9   12.95    0.70
   2   5   9   13.33    0.71
  -3  -5  -9  111.53    4.02
  -3  -5  -9  110.76    4.01
   3   5   9  110.63    3.96
   3   5   9  114.32    3.96
  -4  -5  -9    8.58    0.59
  -4  -5  -9    8.35    0.61
  -5  -5  -9    5.28    0.51
  -5  -5  -9    6.89    0.56
  -6  -5  -9   -0.09    0.26
  -6  -5  -9    0.21    0.24
  -7  -5  -9   11.97    0.81
  -7  -5  -9   10.98    0.77
  -8  -5  -9   15.48    0.95
  -8  -5  -9   14.80    0.97
  -9  -5  -9    3.57    0.60
  -9  -5  -9    3.61    0.57
 -10  -5  -9    1.22    0.50
 -10  -5  -9    1.28    0.50
 -11  -5  -9    0.88    0.55
 -11  -5  -9    1.02    0.58
  11   5   9   -0.26    0.39
 -12  -5  -9    0.78    0.61
 -12  -5  -9    0.94    0.69
  12   5   9    1.61    0.51
   7  -6  -9   -0.08    0.44
   6  -6  -9    0.36    0.45
   5  -6  -9   -0.39    0.45
   4  -6  -9    0.30    0.36
   3  -6  -9    1.01    0.43
   2  -6  -9   -0.15    0.29
   1  -6  -9    0.18    0.32
   0  -6  -9    0.82    0.30
  -1  -6  -9    0.38    0.30
  -2  -6  -9   55.55    2.17
  -3  -6  -9   31.71    1.37
  -4  -6  -9   17.85    0.94
  -4  -6  -9   17.94    0.91
  -5  -6  -9    5.92    0.53
  -5  -6  -9    6.99    0.54
  -6  -6  -9    3.91    0.50
  -6  -6  -9    4.87    0.52
  -7  -6  -9    0.19    0.27
  -7  -6  -9    0.13    0.29
  -8  -6  -9    6.28    0.62
  -8  -6  -9    7.21    0.68
  -9  -6  -9    0.42    0.38
  -9  -6  -9    0.98    0.44
 -10  -6  -9    1.64    0.53
 -10  -6  -9    2.04    0.53
 -11  -6  -9    0.57    0.49
 -11  -6  -9    0.49    0.53
  11   6   9   -0.05    0.36
 -12  -6  -9    1.73    0.68
 -12  -6  -9    0.64    0.60
   6  -7  -9    1.81    0.65
   5  -7  -9   -0.47    0.44
   4  -7  -9    0.49    0.42
   3  -7  -9    0.10    0.42
   2  -7  -9    2.54    0.50
   1  -7  -9   -0.18    0.25
   0  -7  -9    0.02    0.26
  -1  -7  -9    0.38    0.30
  -2  -7  -9    6.63    0.58
  -3  -7  -9    9.72    0.64
  -4  -7  -9    0.07    0.22
  -4  -7  -9   -0.02    0.20
  -5  -7  -9    0.63    0.26
  -5  -7  -9    0.64    0.26
  -6  -7  -9    4.17    0.49
  -6  -7  -9    4.05    0.46
  -7  -7  -9    1.11    0.33
  -7  -7  -9    0.56    0.30
  -8  -7  -9    7.22    0.64
  -8  -7  -9    7.33    0.66
  -9  -7  -9    1.66    0.44
  -9  -7  -9    1.43    0.43
 -10  -7  -9    0.73    0.44
 -10  -7  -9    0.31    0.40
 -11  -7  -9    0.18    0.45
 -11  -7  -9   -0.21    0.45
 -12  -7  -9    1.89    0.66
 -12  -7  -9    2.45    0.66
   5  -8  -9    2.27    0.76
   4  -8  -9    0.67    0.50
   3  -8  -9    1.16    0.46
   2  -8  -9    0.07    0.36
   1  -8  -9    0.58    0.39
   0  -8  -9    0.53    0.30
  -1  -8  -9    0.56    0.31
  -2  -8  -9    3.06    0.44
  -3  -8  -9   26.89    1.22
  -4  -8  -9   10.93    0.67
  -5  -8  -9    6.38    0.53
  -6  -8  -9    1.40    0.31
  -6  -8  -9    1.15    0.30
  -7  -8  -9   -0.10    0.25
  -7  -8  -9   -0.06    0.23
  -8  -8  -9    1.98    0.39
  -8  -8  -9    1.51    0.38
  -9  -8  -9    1.14    0.39
  -9  -8  -9    0.93    0.40
 -10  -8  -9   -0.09    0.34
 -10  -8  -9   -0.07    0.37
 -11  -8  -9    0.25    0.45
 -11  -8  -9   -0.36    0.42
 -12  -8  -9    0.92    0.56
 -12  -8  -9    0.72    0.55
   4  -9  -9    1.62    0.65
   3  -9  -9   -0.05    0.41
   2  -9  -9    0.14    0.44
   1  -9  -9   -0.08    0.34
   0  -9  -9    0.31    0.31
  -1  -9  -9    0.48    0.34
  -2  -9  -9    7.66    0.65
  -3  -9  -9   13.68    0.79
  -4  -9  -9    0.16    0.24
  -5  -9  -9    3.41    0.40
  -5  -9  -9    3.20    0.41
  -6  -9  -9    0.09    0.23
  -6  -9  -9    0.15    0.24
  -7  -9  -9    0.25    0.27
  -7  -9  -9    0.47    0.28
  -8  -9  -9    1.08    0.33
  -8  -9  -9    1.02    0.34
  -9  -9  -9    0.45    0.32
  -9  -9  -9   -0.33    0.31
 -10  -9  -9    0.12    0.34
 -10  -9  -9    0.02    0.38
 -11  -9  -9    0.44    0.44
 -11  -9  -9    0.21    0.44
 -12  -9  -9    2.88    0.62
 -12  -9  -9    2.44    0.60
   3 -10  -9   -0.13    0.54
   2 -10  -9    0.61    0.48
   1 -10  -9    1.28    0.49
   0 -10  -9    1.45    0.43
  -1 -10  -9    2.02    0.44
  -2 -10  -9    0.02    0.29
  -3 -10  -9    4.77    0.52
  -4 -10  -9    1.53    0.35
  -5 -10  -9    2.40    0.35
  -5 -10  -9    2.28    0.37
  -6 -10  -9   -0.12    0.24
  -6 -10  -9    0.22    0.25
  -7 -10  -9    2.80    0.39
  -7 -10  -9    2.81    0.40
  -8 -10  -9    1.41    0.33
  -8 -10  -9    1.02    0.33
  -9 -10  -9    0.47    0.32
  -9 -10  -9    0.09    0.32
 -10 -10  -9    0.18    0.35
 -10 -10  -9    0.55    0.37
 -11 -10  -9    0.81    0.44
 -11 -10  -9    0.31    0.41
 -12 -10  -9    1.01    0.52
 -12 -10  -9    1.31    0.54
   2 -11  -9    1.98    0.63
   1 -11  -9   11.72    0.98
   0 -11  -9    0.64    0.41
  -1 -11  -9    0.05    0.35
  -2 -11  -9    0.16    0.33
  -3 -11  -9    0.23    0.32
  -4 -11  -9    0.63    0.31
  -7 -11  -9    0.67    0.29
  -8 -11  -9    1.55    0.34
  -9 -11  -9    0.55    0.33
 -10 -11  -9   -0.13    0.34
 -10 -11  -9   -0.22    0.32
 -11 -11  -9    0.35    0.41
 -11 -11  -9   -0.25    0.39
 -12 -11  -9    3.72    0.63
 -12 -11  -9    2.21    0.55
   0 -12  -9    0.76    0.48
  -1 -12  -9   -0.11    0.40
  -2 -12  -9   -0.22    0.39
  -3 -12  -9    5.96    0.64
  -4 -12  -9    1.59    0.38
  -7 -12  -9    0.31    0.27
  -8 -12  -9    0.37    0.29
  -9 -12  -9    0.91    0.32
 -10 -12  -9    4.27    0.49
 -11 -12  -9    0.46    0.41
  -2 -13  -9    1.86    0.56
  -3 -13  -9   -0.17    0.39
  -7 -13  -9    0.75    0.29
  -8 -13  -9   -0.04    0.24
  -9 -13  -9    0.56    0.28
 -10 -13  -9    0.86    0.34
  -6  -5  10   -0.29    0.70
  -6  -5  10    1.82    0.76
  -5  -5  10    0.57    0.66
  -5  -5  10    0.02    0.68
  -4  -5  10    0.26    0.67
  -4  -5  10   -0.05    0.64
  -3  -5  10   -0.42    0.62
  -3  -5  10    0.14    0.61
  -2  -5  10    0.29    0.68
  -2  -5  10    0.20    0.62
  -1  -5  10    3.72    0.81
  -1  -5  10    4.72    0.91
   0  -5  10    1.66    0.70
   0  -5  10    1.35    0.73
   1  -5  10    0.74    0.69
   1  -5  10   -0.13    0.65
  -7  -4  10    4.73    0.88
  -7  -4  10    4.68    0.86
  -6  -4  10    1.76    0.69
  -6  -4  10    1.37    0.70
  -5  -4  10    1.37    0.69
  -5  -4  10    0.94    0.68
  -4  -4  10   -0.12    0.57
  -4  -4  10   -0.18    0.59
  -3  -4  10    1.02    0.64
  -3  -4  10    0.59    0.59
  -2  -4  10    0.30    0.53
  -2  -4  10   -0.28    0.56
  -1  -4  10    0.05    0.52
  -1  -4  10   -0.15    0.50
   0  -4  10   -0.07    0.57
   0  -4  10    1.05    0.61
   1  -4  10    0.89    0.62
   1  -4  10    0.81    0.57
   2  -4  10    1.14    0.63
   2  -4  10    0.54    0.55
   3  -4  10    1.87    0.65
   3  -4  10    2.79    0.79
   4  -4  10    0.66    0.71
   4  -4  10    1.27    0.70
  -8  -3  10   -0.03    0.61
  -8  -3  10    0.47    0.62
  -7  -3  10    0.15    0.62
  -7  -3  10   -0.08    0.62
  -6  -3  10   -0.14    0.55
  -6  -3  10    0.30    0.58
  -5  -3  10    0.79    0.59
  -5  -3  10    0.21    0.57
  -4  -3  10    2.50    0.70
  -4  -3  10    2.70    0.67
  -3  -3  10    0.39    0.50
  -3  -3  10    0.06    0.52
  -2  -3  10    2.73    0.64
  -2  -3  10    2.63    0.63
  -1  -3  10    5.23    0.81
  -1  -3  10    4.81    0.77
   0  -3  10    1.46    0.58
   0  -3  10    0.79    0.56
   1  -3  10    0.62    0.49
   1  -3  10    1.07    0.57
   2  -3  10    1.10    0.51
   2  -3  10   -0.89    0.47
   3  -3  10    4.36    0.85
   3  -3  10    3.99    0.78
   4  -3  10   -0.81    0.51
   4  -3  10    0.63    0.52
   5  -3  10    5.21    0.84
  -8  -2  10   -0.07    0.54
  -8  -2  10    0.90    0.71
  -7  -2  10    0.87    0.60
  -7  -2  10    1.28    0.61
  -6  -2  10    4.49    0.79
  -6  -2  10    4.71    0.78
  -5  -2  10    0.56    0.54
  -5  -2  10   -0.12    0.50
  -4  -2  10    1.64    0.58
  -4  -2  10    2.64    0.68
  -3  -2  10    0.61    0.49
  -3  -2  10    0.11    0.51
  -2  -2  10    1.49    0.55
  -2  -2  10    1.09    0.51
  -1  -2  10    2.95    0.56
  -1  -2  10    2.41    0.58
   0  -2  10   -0.10    0.39
   0  -2  10   -0.31    0.40
   1  -2  10   -0.32    0.44
   1  -2  10    0.89    0.51
   2  -2  10    0.28    0.42
   2  -2  10    0.02    0.45
   3  -2  10    0.00    0.49
   3  -2  10   -0.44    0.40
   4  -2  10    0.07    0.48
   4  -2  10    0.54    0.47
   5  -2  10    0.51    0.52
  -8  -1  10    0.87    0.56
  -8  -1  10    1.38    0.67
  -7  -1  10   10.12    1.02
  -7  -1  10    9.12    1.01
  -6  -1  10    0.11    0.48
  -6  -1  10    0.13    0.49
  -5  -1  10    9.39    0.93
  -5  -1  10    9.31    0.98
  -4  -1  10    4.24    0.68
  -4  -1  10    4.35    0.70
  -3  -1  10    0.74    0.43
  -3  -1  10    0.22    0.47
  -2  -1  10    9.04    0.90
  -2  -1  10    8.78    0.87
   1   1 -10    7.73    0.68
  -1  -1  10    6.91    0.78
  -1  -1  10    9.61    0.83
   0   1 -10    1.88    0.37
   0  -1  10    0.98    0.46
   0  -1  10    0.85    0.41
  -1   1 -10    1.92    0.37
   1  -1  10    2.75    0.52
   1  -1  10    1.56    0.49
  -2   1 -10    0.54    0.31
   2  -1  10   -0.05    0.40
   2  -1  10    0.31    0.42
  -3   1 -10    0.24    0.28
   3  -1  10    0.12    0.42
   3  -1  10   -0.20    0.35
   4  -1  10    0.35    0.43
   4  -1  10    0.14    0.43
   5  -1  10    1.57    0.49
  -8   0  10    0.93    2.03
  -8   0  10    0.64    0.59
  -7   0  10   -1.24    1.64
  -7   0  10    0.89    0.57
  -7   0  10    0.57    0.52
  -5   0  10    0.41    0.45
  -5   0  10    0.80    0.43
  -4   0  10    6.93    0.76
  -4   0  10    6.79    0.80
   3   0 -10    0.58    0.31
  -3   0  10    0.34    0.41
  -3   0  10    0.10    0.38
   2   0 -10    2.27    0.42
  -2   0  10    3.76    0.59
  -2   0  10    2.41    0.48
   1   0 -10   -0.03    0.21
   1   0 -10   -0.21    0.20
   1   0 -10    0.39    0.24
  -1   0  10   -0.57    0.33
  -1   0  10   -0.21    0.26
   0   0 -10    2.54    0.43
   0   0 -10    2.00    0.38
   0   0  10    2.43    0.49
   0   0  10    1.88    0.42
  -1   0 -10    0.14    0.25
  -1   0 -10    0.30    0.22
   1   0  10   -0.07    0.32
   1   0  10    0.06    0.32
  -2   0 -10    2.30    0.42
  -2   0 -10    1.99    0.43
   2   0  10    2.26    0.48
   2   0  10    2.48    0.47
  -3   0 -10   -0.06    0.24
  -3   0 -10    0.12    0.30
   3   0  10    0.41    0.35
   3   0  10   -0.23    0.33
  -4   0 -10    4.40    0.57
  -4   0 -10    4.48    0.64
   4   0  10    2.82    0.51
   4   0  10    3.80    0.57
  -5   0 -10    1.67    0.45
  -5   0 -10    1.58    0.42
   5   0  10    1.39    0.45
  -6   0 -10    0.67    0.42
  -7   0 -10    3.09    0.69
  -8   1  10    0.78    0.64
  -7   1  10    5.65    0.82
  -7   1  10    4.96    2.02
  -6   1  10    0.40    0.45
  -6   1  10   -0.24    0.43
  -6   1  10   -0.29    1.59
   5  -1 -10    6.97    0.74
  -5   1  10    5.29    0.70
  -5   1  10    3.49    1.42
  -5   1  10    7.23    0.80
   4  -1 -10    1.56    0.40
  -4   1  10    2.09    0.54
  -4   1  10    0.92    1.03
  -4   1  10    2.41    0.53
   3  -1 -10    1.14    0.35
  -3   1  10    1.73    0.51
  -3   1  10    0.27    0.40
   2  -1 -10   10.01    0.78
  -2   1  10   10.44    0.82
  -2   1  10   10.93    0.84
   1  -1 -10    1.73    0.41
  -1   1  10    2.91    0.52
  -1   1  10    2.05    0.41
   0  -1 -10    0.99    0.34
   0  -1 -10    0.41    0.27
   0  -1 -10    0.66    0.29
   0   1  10    0.86    0.38
   0   1  10    1.10    0.33
  -1  -1 -10    5.71    0.61
  -1  -1 -10    5.64    0.55
   1   1  10    7.04    0.70
   1   1  10    6.35    0.65
  -2  -1 -10   -0.17    0.23
  -2  -1 -10   -0.35    0.23
   2   1  10   -0.23    0.27
   2   1  10    0.12    0.30
  -3  -1 -10    1.68    0.42
  -3  -1 -10    1.56    0.39
   3   1  10    2.72    0.46
   3   1  10    2.22    0.47
  -4  -1 -10   -0.04    0.27
  -4  -1 -10    0.09    0.29
   4   1  10   -0.29    0.32
   4   1  10    0.21    0.31
  -5  -1 -10    1.36    0.40
  -5  -1 -10    1.77    0.42
   5   1  10    1.90    0.49
  -6  -1 -10   -0.27    0.32
  -6  -1 -10    0.34    0.35
  -7  -1 -10    1.42    0.45
  -7  -1 -10    1.32    0.47
  -8  -1 -10    3.35    0.65
  -8  -1 -10    3.20    0.68
  -9  -1 -10   -0.68    0.46
   6  -2 -10    7.88    1.24
  -6   2  10    8.10    0.89
   5  -2 -10    3.53    0.56
  -5   2  10    5.18    0.70
  -5   2  10    4.22    0.71
   4  -2 -10    0.22    0.31
  -4   2  10    0.42    0.36
  -4   2  10   -0.25    0.33
   3  -2 -10    1.47    0.41
  -3   2  10    2.00    0.49
  -3   2  10    1.93    0.47
   2  -2 -10    6.95    0.67
  -2   2  10    7.74    0.69
  -2   2  10    6.39    0.66
   1  -2 -10    3.64    0.52
  -1   2  10    5.59    0.66
  -1   2  10    5.25    0.61
   0  -2 -10    4.91    0.59
   0   2  10    5.87    0.63
   0   2  10    6.15    0.60
  -1  -2 -10    1.34    0.35
  -1  -2 -10    1.77    0.40
  -1  -2 -10    1.03    0.30
   1   2  10    1.30    0.32
   1   2  10    1.98    0.40
  -2  -2 -10    1.06    0.31
  -2  -2 -10    0.76    0.30
   2   2  10    1.34    0.36
   2   2  10    0.69    0.28
  -3  -2 -10    0.71    0.31
  -3  -2 -10    0.61    0.32
   3   2  10    0.83    0.31
   3   2  10    0.75    0.29
  -4  -2 -10    0.15    0.27
  -4  -2 -10    0.36    0.33
   4   2  10    0.56    0.30
   4   2  10    0.74    0.28
  -5  -2 -10    2.14    0.43
  -5  -2 -10    1.59    0.43
   5   2  10    2.23    0.47
  -6  -2 -10    0.29    0.41
  -6  -2 -10    0.48    0.35
  -7  -2 -10    2.01    0.50
  -7  -2 -10    1.79    0.48
  -8  -2 -10    7.04    0.81
  -8  -2 -10    5.21    0.74
  -9  -2 -10    0.70    0.50
  -9  -2 -10    1.22    0.59
 -10  -2 -10    5.20    0.91
 -10  -2 -10    6.81    0.88
   6  -3 -10    0.24    0.43
   5  -3 -10    0.71    0.36
  -5   3  10    1.26    0.76
   4  -3 -10    1.42    0.48
  -4   3  10    1.54    0.45
   3  -3 -10    2.05    0.46
  -3   3  10    2.16    0.45
  -3   3  10    1.81    0.44
   2  -3 -10   13.31    0.89
  -2   3  10   13.75    0.88
  -2   3  10   12.37    0.86
   1  -3 -10    5.45    0.61
  -1   3  10    6.66    0.62
  -1   3  10    5.55    0.59
   0  -3 -10    1.43    0.40
   0   3  10    1.64    0.39
   0   3  10    1.62    0.32
  -1  -3 -10    0.47    0.30
   1   3  10    1.26    0.32
   1   3  10    0.77    0.32
  -2  -3 -10    1.42    0.32
  -2  -3 -10    1.23    0.32
  -2  -3 -10    1.30    0.32
   2   3  10    1.77    0.35
   2   3  10    1.62    0.30
  -3  -3 -10   10.61    0.76
  -3  -3 -10    9.96    0.70
   3   3  10   10.98    0.71
   3   3  10   10.21    0.70
  -4  -3 -10   20.34    1.10
  -4  -3 -10   19.07    1.05
   4   3  10   20.74    1.06
  -5  -3 -10    2.63    0.44
  -5  -3 -10    1.64    0.45
  -6  -3 -10    0.18    0.33
  -6  -3 -10   -0.21    0.28
  -7  -3 -10    1.87    0.53
  -7  -3 -10    1.17    0.44
  -8  -3 -10    0.35    0.47
  -8  -3 -10    1.12    0.48
  -9  -3 -10    0.33    0.51
  -9  -3 -10   -0.50    0.40
 -10  -3 -10    1.88    0.63
 -10  -3 -10    1.73    0.64
   7  -4 -10   -0.35    0.43
   6  -4 -10    0.42    0.43
   5  -4 -10    9.55    0.95
   4  -4 -10    0.54    0.33
   3  -4 -10    0.19    0.32
   2  -4 -10    2.65    0.51
  -2   4  10    2.33    0.44
   1  -4 -10    0.19    0.29
  -1   4  10    0.11    0.20
   0  -4 -10    2.21    0.47
   0   4  10    3.11    0.45
   0   4  10    2.55    0.39
  -1  -4 -10    2.28    0.44
   1   4  10    2.20    0.36
   1   4  10    2.04    0.32
  -2  -4 -10    0.59    0.28
  -2  -4 -10    0.41    0.26
   2   4  10    0.91    0.31
   2   4  10    0.61    0.22
  -3  -4 -10    7.12    0.61
  -3  -4 -10    7.14    0.63
   3   4  10    7.96    0.56
  -4  -4 -10    1.27    0.37
  -4  -4 -10    1.25    0.33
  -5  -4 -10    0.14    0.27
  -5  -4 -10    0.02    0.29
  -6  -4 -10    0.06    0.31
  -6  -4 -10   -0.06    0.33
  -7  -4 -10    0.29    0.35
  -7  -4 -10    1.07    0.39
  -8  -4 -10   -0.01    0.34
  -8  -4 -10    1.06    0.44
  -9  -4 -10    0.11    0.45
  -9  -4 -10    0.34    0.49
 -10  -4 -10    0.73    0.52
 -10  -4 -10    0.56    0.56
 -11  -4 -10    0.29    0.55
 -11  -4 -10    1.69    0.70
   7  -5 -10    0.12    0.46
   6  -5 -10   -0.46    0.36
   5  -5 -10    0.46    0.46
   4  -5 -10    2.94    0.66
   3  -5 -10    1.38    0.45
   2  -5 -10   12.61    0.92
   1  -5 -10   15.88    0.99
   0  -5 -10   21.58    1.15
  -1  -5 -10   15.73    0.93
  -2  -5 -10    5.49    0.62
  -3  -5 -10    1.38    0.39
  -3  -5 -10    0.69    0.30
  -4  -5 -10   39.69    1.64
  -4  -5 -10   37.32    1.66
  -5  -5 -10    0.81    0.31
  -5  -5 -10    0.71    0.30
  -6  -5 -10    0.61    0.35
  -6  -5 -10    0.34    0.30
  -7  -5 -10    2.13    0.43
  -8  -5 -10    5.30    0.65
  -8  -5 -10    4.84    0.63
  -9  -5 -10    1.25    0.48
  -9  -5 -10    1.23    0.55
 -10  -5 -10    1.01    0.52
 -10  -5 -10    1.79    0.62
 -11  -5 -10    0.45    0.54
 -11  -5 -10    1.52    0.67
   6  -6 -10    1.11    0.62
   5  -6 -10    0.11    0.42
   4  -6 -10    0.78    0.44
   3  -6 -10    1.29    0.47
   2  -6 -10    4.01    0.58
   1  -6 -10    0.23    0.32
   0  -6 -10   11.02    0.81
  -1  -6 -10    8.58    0.69
  -2  -6 -10    2.31    0.45
  -3  -6 -10    4.54    0.53
  -4  -6 -10    5.63    0.56
  -4  -6 -10    5.93    0.57
  -5  -6 -10    4.81    0.54
  -5  -6 -10    6.48    0.56
  -6  -6 -10    3.84    0.51
  -6  -6 -10    3.28    0.47
  -7  -6 -10    0.66    0.35
  -7  -6 -10    0.69    0.33
  -8  -6 -10    0.45    0.37
  -8  -6 -10    0.72    0.40
  -9  -6 -10    3.07    0.59
  -9  -6 -10    2.56    0.54
 -10  -6 -10    0.04    0.43
 -10  -6 -10    0.38    0.46
 -11  -6 -10    2.60    0.69
 -11  -6 -10    2.48    0.66
 -12  -6 -10    0.85    0.61
 -12  -6 -10    0.38    0.63
   6  -7 -10    0.92    0.60
   5  -7 -10    1.25    0.51
   4  -7 -10    0.70    0.47
   3  -7 -10   -0.16    0.33
   2  -7 -10    1.16    0.38
   1  -7 -10   16.94    1.06
   0  -7 -10    0.79    0.39
  -1  -7 -10    1.43    0.39
  -2  -7 -10    0.79    0.33
  -3  -7 -10    0.49    0.28
  -4  -7 -10   51.53    2.06
  -4  -7 -10   51.83    2.07
  -5  -7 -10   18.98    0.99
  -5  -7 -10   19.31    1.01
  -6  -7 -10    4.56    0.54
  -6  -7 -10    5.15    0.57
  -7  -7 -10    1.70    0.41
  -7  -7 -10    1.68    0.39
  -8  -7 -10    1.77    0.43
  -8  -7 -10    1.64    0.41
  -9  -7 -10    1.16    0.46
  -9  -7 -10    1.40    0.46
 -10  -7 -10    0.65    0.46
 -10  -7 -10    0.11    0.45
 -11  -7 -10    0.24    0.53
 -11  -7 -10    0.34    0.53
 -12  -7 -10   -0.03    0.56
 -12  -7 -10    0.40    0.66
   5  -8 -10   -0.08    0.59
   4  -8 -10    2.26    0.69
   3  -8 -10    0.31    0.48
   2  -8 -10    1.35    0.44
   1  -8 -10   -0.10    0.32
   0  -8 -10    3.95    0.58
  -1  -8 -10    0.15    0.36
  -2  -8 -10    6.01    0.61
  -3  -8 -10   16.55    0.93
  -4  -8 -10   24.30    1.17
  -5  -8 -10    2.10    0.40
  -5  -8 -10    2.00    0.38
  -6  -8 -10    1.58    0.37
  -6  -8 -10    1.36    0.35
  -7  -8 -10    6.01    0.61
  -7  -8 -10    5.96    0.61
  -8  -8 -10   17.82    1.03
  -8  -8 -10   17.49    1.00
  -9  -8 -10    1.13    0.45
  -9  -8 -10    1.54    0.45
 -10  -8 -10    2.50    0.55
 -10  -8 -10    1.24    0.47
 -11  -8 -10    0.32    0.51
 -11  -8 -10    0.27    0.48
 -12  -8 -10    0.97    0.60
 -12  -8 -10    1.30    0.62
   4  -9 -10    0.36    0.57
   3  -9 -10    2.16    0.60
   2  -9 -10    0.24    0.39
   1  -9 -10    8.04    0.85
   0  -9 -10   -0.11    0.34
  -1  -9 -10    4.69    0.60
  -2  -9 -10   -0.12    0.30
  -3  -9 -10    3.37    0.47
  -4  -9 -10    7.15    0.61
  -5  -9 -10    1.92    0.38
  -6  -9 -10    3.44    0.46
  -6  -9 -10    3.73    0.48
  -7  -9 -10    0.16    0.31
  -7  -9 -10   -0.02    0.29
  -8  -9 -10    7.30    0.70
  -8  -9 -10    7.22    0.64
  -9  -9 -10    1.11    0.42
  -9  -9 -10    2.06    0.48
 -10  -9 -10    4.31    0.62
 -10  -9 -10    3.30    0.58
 -11  -9 -10    5.16    0.71
 -11  -9 -10    6.51    0.78
 -12  -9 -10    0.31    0.56
 -12  -9 -10   -0.03    0.54
   3 -10 -10    1.77    0.59
   2 -10 -10    1.88    0.56
   1 -10 -10    0.28    0.42
   0 -10 -10    1.58    0.47
  -1 -10 -10   -0.21    0.33
  -2 -10 -10    0.11    0.34
  -3 -10 -10    3.80    0.51
  -4 -10 -10   18.40    0.98
  -5 -10 -10    3.08    0.45
  -5 -10 -10    2.93    0.43
  -6 -10 -10    1.09    0.34
  -6 -10 -10    1.32    0.36
  -7 -10 -10   -0.09    0.29
  -7 -10 -10    0.13    0.30
  -8 -10 -10    5.00    0.56
  -8 -10 -10    5.71    0.59
  -9 -10 -10    0.87    0.40
  -9 -10 -10    0.77    0.37
 -10 -10 -10   -0.08    0.39
 -10 -10 -10    0.35    0.40
 -11 -10 -10    2.11    0.56
 -11 -10 -10    2.16    0.54
 -12 -10 -10    2.07    0.63
 -12 -10 -10    2.49    0.62
   1 -11 -10    1.28    0.54
   0 -11 -10    0.80    0.47
  -1 -11 -10    0.67    0.43
  -2 -11 -10   -0.32    0.35
  -3 -11 -10    1.42    0.41
  -4 -11 -10    1.34    0.40
  -5 -11 -10    8.59    0.66
  -7 -11 -10   -0.03    0.30
  -7 -11 -10    0.14    0.30
  -8 -11 -10   -0.09    0.32
  -8 -11 -10    0.45    0.34
  -9 -11 -10    0.04    0.36
  -9 -11 -10    0.35    0.34
 -10 -11 -10    1.70    0.45
 -10 -11 -10    1.12    0.44
 -11 -11 -10    0.20    0.45
 -11 -11 -10   -0.66    0.43
   0 -12 -10    0.18    0.48
  -1 -12 -10    3.67    0.64
  -2 -12 -10    0.43    0.42
  -3 -12 -10    3.50    0.55
  -4 -12 -10    2.55    0.49
  -7 -12 -10    2.71    0.42
  -8 -12 -10    2.29    0.41
  -9 -12 -10    3.51    0.49
 -10 -12 -10    5.44    0.59
  -2 -13 -10    2.14    0.58
  -3 -13 -10    1.37    0.47
  -7 -13 -10   -0.29    0.32
  -8 -13 -10    0.32    0.33
  -9 -13 -10    0.19    0.34
  -5  -4  11    1.40    0.76
  -5  -4  11   -0.17    0.71
  -4  -4  11    1.79    0.75
  -4  -4  11    0.34    0.69
  -3  -4  11   -0.82    0.61
  -3  -4  11    0.26    0.61
  -2  -4  11   -0.50    0.60
  -2  -4  11   -0.44    0.66
  -1  -4  11    1.25    0.73
  -1  -4  11    1.64    0.72
   0  -4  11    1.89    0.73
   0  -4  11    1.00    0.72
   1  -4  11    0.72    0.71
   1  -4  11    1.17    0.70
   2  -4  11    1.90    0.78
  -6  -3  11    3.49    0.84
  -6  -3  11    4.09    0.86
  -5  -3  11    0.74    0.72
  -5  -3  11   -0.01    0.66
  -4  -3  11    1.54    0.70
  -4  -3  11    1.48    0.63
  -3  -3  11    8.52    0.99
  -3  -3  11    7.81    0.97
  -2  -3  11    6.47    0.94
  -2  -3  11    5.72    0.86
  -1  -3  11    0.45    0.61
  -1  -3  11    1.43    0.62
   0  -3  11    1.05    0.63
   0  -3  11    0.88    0.61
   1  -3  11    0.41    0.56
   1  -3  11    1.06    0.64
   2  -3  11    0.47    0.64
   2  -3  11    0.26    0.57
   3  -3  11    1.02    0.68
   3  -3  11    1.31    0.63
   4  -3  11    2.10    0.67
  -7  -2  11    1.35    0.72
  -7  -2  11    0.82    0.70
  -6  -2  11    0.73    0.64
  -6  -2  11    0.24    0.63
  -5  -2  11    1.60    0.70
  -5  -2  11    0.68    0.63
  -4  -2  11    0.88    0.65
  -4  -2  11   -0.01    0.53
  -3  -2  11    0.59    0.60
  -3  -2  11    0.50    0.47
  -2  -2  11    2.62    0.63
  -2  -2  11    2.07    0.59
  -1  -2  11    0.62    0.59
  -1  -2  11    1.56    0.63
   0  -2  11    2.52    0.66
   0  -2  11    2.20    0.64
   1  -2  11    3.77    0.71
   1  -2  11    5.19    0.79
   2  -2  11    1.59    0.62
   2  -2  11    2.72    0.76
   3  -2  11    4.96    0.76
   3  -2  11    7.14    0.92
   4  -2  11    0.01    0.51
  -7  -1  11    0.10    0.54
  -7  -1  11   -0.11    0.54
  -6  -1  11   -0.41    0.59
  -6  -1  11    0.28    0.59
  -5  -1  11    1.28    0.61
  -5  -1  11    1.77    0.63
  -4  -1  11    0.63    0.57
  -4  -1  11    0.40    0.50
  -3  -1  11    0.79    0.56
  -3  -1  11   -0.14    0.46
  -2  -1  11    0.15    0.45
  -2  -1  11    0.77    0.54
  -1  -1  11    0.05    0.46
  -1  -1  11   -0.02    0.39
   0  -1  11    4.85    0.74
   0  -1  11    4.74    0.72
   1  -1  11    3.29    0.64
   1  -1  11    3.32    0.63
   2  -1  11    0.50    0.47
   2  -1  11   -0.45    0.42
   3  -1  11    0.45    0.50
   3  -1  11    0.54    0.49
   4  -1  11    0.72    0.50
  -7   0  11    0.14    0.57
  -6   0  11   -0.06    0.53
  -6   0  11   -0.08    0.54
  -5   0  11    1.10    0.59
  -5   0  11    0.41    0.50
  -4   0  11    1.53    0.55
  -4   0  11    2.22    0.63
  -3   0  11    0.78    0.51
  -3   0  11   -0.06    0.40
  -2   0  11    0.05    0.47
  -2   0  11    0.08    0.33
   1   0 -11    6.77    0.74
  -1   0  11    5.92    0.75
  -1   0  11    6.89    0.76
   0   0 -11   -0.12    0.29
   0   0  11    0.18    0.44
   0   0  11   -0.04    0.41
  -1   0 -11    3.92    0.59
   1   0  11    5.12    0.69
   1   0  11    3.16    0.61
  -2   0 -11    0.85    0.37
   2   0  11    1.19    0.49
   2   0  11    0.36    0.41
  -3   0 -11    3.75    0.62
   3   0  11    3.40    0.63
   3   0  11    5.06    0.69
  -4   0 -11    1.46    0.46
   4   0  11    1.02    0.47
  -5   0 -11    9.05    0.97
  -7   1  11    1.16    0.70
  -6   1  11    0.18    0.53
  -5   1  11    0.61    0.76
  -5   1  11   -0.67    0.40
  -4   1  11    0.45    0.46
  -4   1  11   -0.04    0.44
   3  -1 -11    0.21    0.33
  -3   1  11   -0.03    0.43
  -3   1  11    0.44    0.45
   2  -1 -11    0.84    0.35
  -2   1  11    1.15    0.50
  -2   1  11    0.76    0.43
   1  -1 -11    0.59    0.31
   1  -1 -11    0.20    0.31
   1  -1 -11    0.40    0.31
  -1   1  11    0.11    0.39
  -1   1  11    1.05    0.41
   0  -1 -11   10.93    0.85
   0  -1 -11   11.00    0.78
   0   1  11   11.44    0.88
   0   1  11   12.05    0.91
  -1  -1 -11    6.90    0.70
  -1  -1 -11    6.84    0.64
   1   1  11    6.63    0.74
   1   1  11    6.94    0.77
  -2  -1 -11    6.19    0.63
  -2  -1 -11    7.05    0.71
   2   1  11    6.97    0.76
   2   1  11    6.98    0.73
  -3  -1 -11   -0.09    0.33
  -3  -1 -11    0.81    0.34
   3   1  11    1.00    0.64
   3   1  11    0.85    0.38
  -4  -1 -11    2.25    0.51
  -4  -1 -11    2.51    0.49
   4   1  11    2.33    0.49
  -5  -1 -11    4.85    0.67
  -5  -1 -11    5.11    0.71
  -6  -1 -11   -0.21    0.38
  -6  -1 -11   -0.22    0.38
  -7  -1 -11    0.80    0.48
  -8  -1 -11    3.39    0.71
  -7   2  11   -0.92    2.12
  -5   2  11    4.59    0.73
   4  -2 -11    0.80    0.43
  -4   2  11    0.95    0.43
   3  -2 -11   -0.08    0.31
  -3   2  11   -0.63    0.30
  -3   2  11    0.78    0.47
   2  -2 -11    0.69    0.35
  -2   2  11    2.60    0.55
  -2   2  11    1.94    0.48
   1  -2 -11    0.22    0.29
  -1   2  11    0.47    0.35
  -1   2  11    0.97    0.44
   0  -2 -11    0.02    0.31
   0  -2 -11   -0.32    0.28
   0   2  11   -0.13    0.29
   0   2  11    0.50    0.36
  -1  -2 -11    8.64    0.75
  -1  -2 -11    8.93    0.70
   1   2  11    7.10    0.71
   1   2  11    8.82    0.75
  -2  -2 -11    0.73    0.35
  -2  -2 -11    0.83    0.33
   2   2  11    0.67    0.38
   2   2  11    1.09    0.36
  -3  -2 -11    0.84    0.34
  -3  -2 -11    1.14    0.39
   3   2  11    0.46    0.33
  -4  -2 -11    0.55    0.41
  -4  -2 -11    0.29    0.31
  -5  -2 -11    6.50    0.72
  -5  -2 -11    4.37    0.67
  -6  -2 -11    4.32    0.66
  -6  -2 -11    5.00    0.75
  -7  -2 -11    3.00    0.62
  -7  -2 -11    1.97    0.56
  -8  -2 -11    6.97    0.91
  -8  -2 -11    7.47    0.88
  -9  -2 -11    0.96    0.58
  -9  -2 -11    0.70    0.61
   5  -3 -11    0.46    0.41
   4  -3 -11   -0.03    0.36
   3  -3 -11    0.20    0.29
  -3   3  11   -0.49    0.33
   2  -3 -11    0.23    0.30
  -2   3  11    0.37    0.33
   1  -3 -11    3.21    0.49
  -1   3  11    6.38    0.64
   0  -3 -11    0.57    0.33
   0   3  11    0.40    0.29
  -1  -3 -11    0.27    0.29
  -1  -3 -11    0.57    0.33
   1   3  11    0.05    0.24
  -2  -3 -11    2.72    0.46
  -2  -3 -11    3.06    0.53
   2   3  11    2.33    0.41
  -3  -3 -11    0.28    0.28
  -3  -3 -11    1.03    0.34
  -4  -3 -11    3.02    0.51
  -4  -3 -11    3.39    0.58
  -5  -3 -11    4.35    0.59
  -5  -3 -11    4.07    0.59
  -6  -3 -11   -0.05    0.33
  -6  -3 -11    0.30    0.42
  -7  -3 -11    2.23    0.52
  -7  -3 -11    1.56    0.51
  -8  -3 -11   -0.23    0.46
  -8  -3 -11    0.02    0.44
  -9  -3 -11    9.59    1.04
  -9  -3 -11   10.00    1.00
 -10  -3 -11    2.31    0.70
 -10  -3 -11    1.19    0.65
   6  -4 -11    1.35    0.49
   5  -4 -11    1.91    0.56
   4  -4 -11    6.48    0.75
   3  -4 -11   -0.12    0.30
   2  -4 -11    0.78    0.41
   1  -4 -11    4.36    0.60
   0  -4 -11    0.68    0.37
  -1  -4 -11    0.58    0.38
  -2  -4 -11    2.71    0.50
  -2  -4 -11    3.30    0.58
  -3  -4 -11    0.32    0.30
  -3  -4 -11    0.60    0.36
  -4  -4 -11    1.07    0.41
  -4  -4 -11    1.74    0.42
  -5  -4 -11    0.28    0.33
  -5  -4 -11   -0.02    0.32
  -6  -4 -11    3.42    0.55
  -6  -4 -11    1.85    0.46
  -7  -4 -11    8.76    0.94
  -7  -4 -11    8.41    0.83
  -8  -4 -11   11.58    1.06
  -8  -4 -11   12.10    1.00
  -9  -4 -11    0.01    0.45
  -9  -4 -11    1.57    0.56
 -10  -4 -11    1.66    0.62
 -10  -4 -11    1.26    0.63
   6  -5 -11    1.63    0.54
   5  -5 -11   -0.37    0.37
   4  -5 -11    0.53    0.43
   3  -5 -11    2.28    0.51
   2  -5 -11    0.12    0.35
   1  -5 -11    0.78    0.39
   0  -5 -11    0.30    0.34
  -1  -5 -11    1.31    0.38
  -2  -5 -11    0.71    0.32
  -3  -5 -11    1.73    0.41
  -3  -5 -11    1.69    0.41
  -3  -5 -11    2.39    0.45
  -4  -5 -11    0.49    0.31
  -4  -5 -11    0.23    0.28
  -5  -5 -11    1.69    0.40
  -5  -5 -11    1.92    0.43
  -6  -5 -11    0.03    0.33
  -6  -5 -11    0.33    0.34
  -7  -5 -11    7.92    0.86
  -7  -5 -11    6.73    0.73
  -8  -5 -11    1.82    0.54
  -8  -5 -11    2.09    0.51
  -9  -5 -11    0.61    0.53
  -9  -5 -11    0.47    0.48
 -10  -5 -11    2.11    0.64
 -10  -5 -11    0.71    0.54
 -11  -5 -11    0.64    0.70
 -11  -5 -11    0.18    0.59
   6  -6 -11   -0.09    0.49
   5  -6 -11    0.28    0.54
   4  -6 -11    4.80    0.82
   3  -6 -11    0.89    0.45
   2  -6 -11    1.92    0.50
   1  -6 -11    1.40    0.43
   0  -6 -11    0.16    0.37
  -1  -6 -11    0.04    0.29
  -2  -6 -11    3.31    0.50
  -3  -6 -11    0.37    0.32
  -3  -6 -11    0.34    0.32
  -4  -6 -11    1.73    0.41
  -4  -6 -11    1.99    0.45
  -5  -6 -11    1.18    0.40
  -5  -6 -11    1.35    0.39
  -6  -6 -11    1.75    0.45
  -6  -6 -11    1.93    0.50
  -7  -6 -11    2.27    0.49
  -7  -6 -11    2.28    0.49
  -8  -6 -11    2.70    0.58
  -8  -6 -11    2.10    0.50
  -9  -6 -11    1.27    0.55
  -9  -6 -11    0.89    0.47
 -10  -6 -11    3.41    0.73
 -10  -6 -11    3.86    0.72
 -11  -6 -11   -0.67    0.54
 -11  -6 -11    1.06    0.63
   5  -7 -11    0.72    0.53
   4  -7 -11   -0.14    0.54
   3  -7 -11   -0.55    0.44
   2  -7 -11    0.01    0.35
   1  -7 -11    1.15    0.42
   0  -7 -11    3.93    0.59
  -1  -7 -11    0.28    0.34
  -2  -7 -11    0.56    0.36
  -3  -7 -11    4.72    0.57
  -4  -7 -11    0.34    0.32
  -4  -7 -11    0.24    0.31
  -5  -7 -11    1.67    0.44
  -5  -7 -11    1.53    0.39
  -6  -7 -11    2.01    0.45
  -6  -7 -11    2.51    0.51
  -7  -7 -11    1.57    0.45
  -7  -7 -11    1.65    0.44
  -8  -7 -11    3.87    0.60
  -8  -7 -11    2.88    0.54
  -9  -7 -11    2.04    0.58
  -9  -7 -11    0.48    0.45
 -10  -7 -11    0.24    0.46
 -10  -7 -11    0.75    0.55
 -11  -7 -11    0.51    0.60
 -11  -7 -11    0.43    0.56
   4  -8 -11   -0.29    0.55
   3  -8 -11    0.28    0.44
   2  -8 -11    0.42    0.48
   1  -8 -11    1.51    0.46
   0  -8 -11    0.80    0.41
  -1  -8 -11    7.60    0.81
  -2  -8 -11    2.87    0.50
  -3  -8 -11   -0.04    0.33
  -4  -8 -11   27.27    1.33
  -4  -8 -11   27.94    1.33
  -5  -8 -11    2.60    0.48
  -5  -8 -11    3.01    0.50
  -6  -8 -11    6.17    0.65
  -6  -8 -11    5.79    0.63
  -7  -8 -11    0.23    0.35
  -7  -8 -11    0.28    0.35
  -8  -8 -11    0.05    0.38
  -8  -8 -11    0.07    0.36
  -9  -8 -11    0.33    0.43
  -9  -8 -11    0.28    0.44
 -10  -8 -11    0.06    0.48
 -10  -8 -11    0.31    0.47
 -11  -8 -11    0.27    0.57
 -11  -8 -11    0.09    0.53
   3  -9 -11   -0.45    0.49
   2  -9 -11   -0.14    0.50
   1  -9 -11   -0.07    0.41
   0  -9 -11    5.93    0.73
  -1  -9 -11    0.69    0.44
  -2  -9 -11    0.16    0.38
  -3  -9 -11    0.24    0.33
  -4  -9 -11    2.18    0.46
  -5  -9 -11    7.63    0.69
  -6  -9 -11    6.58    0.69
  -6  -9 -11    6.93    0.67
  -7  -9 -11    1.26    0.41
  -7  -9 -11    1.17    0.40
  -8  -9 -11    1.95    0.48
  -8  -9 -11    2.34    0.50
  -9  -9 -11    1.73    0.49
  -9  -9 -11    2.53    0.56
 -10  -9 -11    5.93    0.75
 -10  -9 -11    6.05    0.76
 -11  -9 -11    0.88    0.58
 -11  -9 -11    1.62    0.58
   2 -10 -11    0.38    0.53
   1 -10 -11    0.10    0.45
   0 -10 -11    0.79    0.47
  -1 -10 -11    1.65    0.49
  -2 -10 -11    0.06    0.39
  -3 -10 -11    1.86    0.48
  -4 -10 -11   14.45    0.92
  -5 -10 -11   15.60    0.94
  -5 -10 -11   15.07    0.93
  -6 -10 -11    1.30    0.39
  -6 -10 -11    1.57    0.42
  -7 -10 -11   -0.03    0.34
  -7 -10 -11   -0.04    0.33
  -8 -10 -11    1.66    0.44
  -8 -10 -11    1.63    0.45
  -9 -10 -11    8.98    0.81
  -9 -10 -11   10.30    0.88
 -10 -10 -11    3.66    0.64
 -10 -10 -11    3.83    0.61
 -11 -10 -11   -0.07    0.49
 -11 -10 -11    0.14    0.49
   1 -11 -11    1.81    0.65
   0 -11 -11    3.30    0.65
  -1 -11 -11    0.25    0.43
  -2 -11 -11    3.74    0.60
  -3 -11 -11    0.45    0.41
  -4 -11 -11    0.17    0.37
  -5 -11 -11    8.88    0.76
  -5 -11 -11    9.19    0.75
  -6 -11 -11   10.48    0.79
  -6 -11 -11   10.81    0.80
  -7 -11 -11    0.15    0.35
  -7 -11 -11   -0.38    0.32
  -8 -11 -11    0.63    0.41
  -8 -11 -11    1.54    0.45
  -9 -11 -11    0.35    0.43
  -9 -11 -11    0.27    0.41
 -10 -11 -11    3.17    0.59
 -10 -11 -11    3.43    0.60
  -1 -12 -11    0.33    0.50
  -2 -12 -11    3.66    0.63
  -3 -12 -11    2.85    0.56
  -4 -12 -11    5.18    0.63
  -5 -12 -11    5.55    0.60
  -5 -12 -11    4.69    0.58
  -6 -12 -11    0.31    0.38
  -7 -12 -11    1.04    0.41
  -7 -12 -11    0.41    0.38
  -8 -12 -11    1.13    0.42
  -9 -12 -11    2.40    0.49
 -10 -12 -11    1.57    0.51
  -3 -13 -11    2.79    0.59
  -4 -13 -11    5.37    0.68
  -5 -13 -11    4.97    0.60
  -7 -13 -11    1.00    0.44
  -8 -13 -11   -0.22    0.39
  -4  -3  12    1.84    0.81
  -4  -3  12    0.79    0.70
  -3  -3  12    0.44    0.66
  -3  -3  12    0.36    0.65
  -2  -3  12    1.57    0.78
  -2  -3  12    0.10    0.65
  -1  -3  12    4.35    0.88
  -1  -3  12    4.10    0.87
   0  -3  12    0.18    0.63
   0  -3  12   -0.54    0.61
   1  -3  12    1.68    0.74
   1  -3  12    0.21    0.58
  -5  -2  12   12.01    1.25
  -5  -2  12   11.87    1.24
  -4  -2  12    0.69    0.71
  -4  -2  12    3.15    0.80
  -3  -2  12    0.54    0.61
  -3  -2  12    0.68    0.63
  -2  -2  12    1.32    0.68
  -2  -2  12    0.63    0.64
  -1  -2  12    3.66    0.81
  -1  -2  12    2.56    0.74
   0  -2  12    4.23    0.84
   0  -2  12    3.34    0.79
   1  -2  12   -0.01    0.55
   1  -2  12   -0.05    0.58
   2  -2  12    0.51    0.57
   3  -2  12    1.73    0.76
  -6  -1  12    6.23    0.99
  -5  -1  12    1.20    0.66
  -5  -1  12    1.05    0.64
  -4  -1  12   -0.61    0.63
  -4  -1  12   -0.39    0.55
  -3  -1  12    1.16    0.55
  -3  -1  12    1.36    0.64
  -2  -1  12    1.23    0.63
  -2  -1  12    0.68    0.57
  -1  -1  12    7.42    0.95
  -1  -1  12    6.49    0.87
   0  -1  12    3.80    0.78
   0  -1  12    2.41    0.67
   1  -1  12    1.09    0.59
   1  -1  12    0.62    0.57
   2  -1  12    2.33    0.72
   3  -1  12    0.01    0.49
  -6   0  12   -0.22    0.55
  -5   0  12    1.86    0.62
  -4   0  12    1.85    0.63
  -4   0  12    1.67    0.79
  -3   0  12    0.66    0.53
  -3   0  12   -0.29    0.56
  -2   0  12   -0.38    0.48
  -2   0  12   -0.29    0.51
  -1   0  12    0.18    0.48
  -1   0  12   -0.01    0.47
   0   0  12    6.30    0.75
   0   0  12    6.66    0.85
   1   0  12    1.40    0.54
   1   0  12    1.51    0.78
   2   0  12    0.51    0.42
   3   0  12    0.23    0.51
  -5   1  12    0.72    0.60
  -4   1  12    1.11    0.59
  -3   1  12    0.90    0.50
   2  -1 -12    0.90    0.44
  -2   1  12    0.17    0.45
   1  -1 -12    0.09    0.36
   1  -1 -12    0.32    0.34
  -1   1  12    0.30    0.40
   0  -1 -12    2.89    0.55
   0   1  12    2.11    0.49
  -1  -1 -12    1.26    0.40
  -1  -1 -12    0.73    0.39
   1   1  12    1.17    0.51
  -2  -1 -12    0.32    0.36
  -2  -1 -12    0.33    0.34
   2   1  12    0.55    0.47
  -3  -1 -12   -0.48    0.30
  -3  -1 -12    0.53    0.33
  -4  -1 -12    3.82    0.67
  -5  -1 -12    0.22    0.50
  -6  -1 -12    3.19    0.72
   3  -2 -12   -0.18    0.31
  -3   2  12    1.29    0.55
   2  -2 -12    0.82    0.40
  -2   2  12    0.76    0.41
   1  -2 -12    0.11    0.33
  -1   2  12    0.22    0.37
   0  -2 -12    1.35    0.42
   0  -2 -12    2.31    0.50
   0  -2 -12    2.28    0.49
   0   2  12    2.01    0.53
  -1  -2 -12    0.97    0.39
  -1  -2 -12    1.14    0.41
   1   2  12    0.67    0.39
  -2  -2 -12    1.16    0.39
  -2  -2 -12    1.70    0.45
  -3  -2 -12    0.09    0.37
  -3  -2 -12    0.14    0.40
  -4  -2 -12    5.15    0.75
  -4  -2 -12    4.94    0.66
  -5  -2 -12    2.08    0.54
  -5  -2 -12    1.70    0.54
  -6  -2 -12    8.41    0.91
  -6  -2 -12    8.87    0.97
  -7  -2 -12    0.53    0.51
  -7  -2 -12   -0.67    0.38
  -8  -2 -12    0.37    0.57
   4  -3 -12    0.77    0.49
   3  -3 -12   -0.07    0.37
   2  -3 -12    2.14    0.52
   1  -3 -12    0.01    0.33
   0  -3 -12   -0.09    0.31
  -1  -3 -12    0.66    0.42
  -1  -3 -12    0.78    0.41
  -1  -3 -12    0.81    0.39
  -2  -3 -12    6.73    0.73
  -2  -3 -12    5.97    0.72
  -3  -3 -12    2.95    0.56
  -3  -3 -12    3.36    0.53
  -4  -3 -12    2.36    0.52
  -4  -3 -12    1.35    0.50
  -5  -3 -12    0.26    0.42
  -5  -3 -12    0.10    0.36
  -6  -3 -12    1.70    0.57
  -6  -3 -12    1.33    0.49
  -7  -3 -12    1.92    0.58
  -7  -3 -12    2.08    0.63
  -8  -3 -12    2.20    0.65
  -8  -3 -12    2.45    0.62
  -9  -3 -12    0.65    0.56
  -9  -3 -12    0.09    0.61
   5  -4 -12    0.49    0.44
   4  -4 -12   11.14    1.02
   3  -4 -12    1.19    0.48
   2  -4 -12    0.33    0.39
   1  -4 -12   -0.25    0.34
   0  -4 -12    1.93    0.51
  -1  -4 -12   -0.07    0.30
  -2  -4 -12    0.73    0.40
  -2  -4 -12    0.48    0.36
  -2  -4 -12    0.46    0.34
  -3  -4 -12    0.19    0.38
  -3  -4 -12   -0.30    0.33
  -4  -4 -12    5.37    0.69
  -4  -4 -12    6.35    0.73
  -5  -4 -12    0.96    0.43
  -5  -4 -12    0.64    0.45
  -6  -4 -12    7.23    0.80
  -6  -4 -12    6.79    0.81
  -7  -4 -12    0.65    0.49
  -7  -4 -12    1.13    0.50
  -8  -4 -12    1.67    0.61
  -8  -4 -12    0.86    0.50
  -9  -4 -12   10.06    1.08
  -9  -4 -12    8.41    0.98
   5  -5 -12    0.00    0.51
   4  -5 -12    0.48    0.54
   3  -5 -12   -0.15    0.40
   2  -5 -12    0.54    0.43
   1  -5 -12    0.00    0.34
   0  -5 -12    0.09    0.39
  -1  -5 -12    0.19    0.34
  -2  -5 -12    2.27    0.46
  -2  -5 -12    3.02    0.51
  -3  -5 -12    6.11    0.70
  -3  -5 -12    6.03    0.72
  -4  -5 -12    0.38    0.35
  -4  -5 -12    0.43    0.35
  -5  -5 -12    0.55    0.39
  -5  -5 -12    0.31    0.38
  -6  -5 -12    1.04    0.50
  -6  -5 -12   -0.03    0.37
  -7  -5 -12    0.84    0.47
  -7  -5 -12    0.84    0.46
  -8  -5 -12    0.36    0.47
  -8  -5 -12    0.22    0.45
  -9  -5 -12    2.13    0.63
  -9  -5 -12    2.54    0.71
 -10  -5 -12    9.08    1.10
 -10  -5 -12    7.87    0.97
   5  -6 -12   -0.02    0.46
   4  -6 -12    3.56    0.76
   3  -6 -12    1.73    0.54
   2  -6 -12    0.25    0.41
   1  -6 -12    1.06    0.52
   0  -6 -12    0.94    0.47
  -1  -6 -12    1.82    0.49
  -2  -6 -12    3.60    0.62
  -3  -6 -12    1.51    0.49
  -3  -6 -12    0.23    0.36
  -4  -6 -12    0.16    0.37
  -4  -6 -12    0.82    0.43
  -5  -6 -12   -0.04    0.35
  -5  -6 -12    0.09    0.35
  -6  -6 -12    1.07    0.44
  -6  -6 -12    1.11    0.44
  -7  -6 -12    0.25    0.43
  -7  -6 -12    0.26    0.38
  -8  -6 -12    0.21    0.45
  -8  -6 -12    1.16    0.51
  -9  -6 -12   11.90    1.06
  -9  -6 -12   12.13    1.16
 -10  -6 -12    6.69    0.96
 -10  -6 -12    5.40    0.84
   4  -7 -12    2.26    0.72
   3  -7 -12   -0.41    0.51
   2  -7 -12    2.33    0.60
   1  -7 -12    0.47    0.47
   0  -7 -12    0.25    0.39
  -1  -7 -12    1.97    0.49
  -2  -7 -12    2.76    0.51
  -3  -7 -12    1.65    0.43
  -4  -7 -12   -0.08    0.33
  -4  -7 -12   -0.09    0.35
  -5  -7 -12    0.39    0.37
  -5  -7 -12   -0.23    0.31
  -6  -7 -12    1.36    0.46
  -6  -7 -12    1.48    0.46
  -7  -7 -12   -0.40    0.35
  -7  -7 -12    0.14    0.40
  -8  -7 -12   -0.32    0.38
  -8  -7 -12    0.19    0.44
  -9  -7 -12    2.80    0.69
  -9  -7 -12    2.47    0.61
 -10  -7 -12    1.03    0.60
 -10  -7 -12    0.78    0.60
   3  -8 -12    0.12    0.47
   2  -8 -12    0.10    0.50
   1  -8 -12    4.09    0.67
   0  -8 -12   -0.15    0.39
  -1  -8 -12    0.83    0.46
  -2  -8 -12    0.55    0.38
  -3  -8 -12    2.89    0.52
  -4  -8 -12    2.29    0.56
  -4  -8 -12    1.82    0.48
  -5  -8 -12    0.40    0.38
  -5  -8 -12   -0.09    0.36
  -6  -8 -12   -0.04    0.36
  -6  -8 -12   -0.05    0.36
  -7  -8 -12    2.70    0.55
  -7  -8 -12    2.54    0.56
  -8  -8 -12    0.97    0.49
  -8  -8 -12    1.34    0.48
  -9  -8 -12    0.49    0.50
  -9  -8 -12    0.11    0.45
 -10  -8 -12    3.36    0.72
 -10  -8 -12    3.43    0.71
   2  -9 -12    2.45    0.72
   1  -9 -12    0.71    0.52
   0  -9 -12    1.10    0.50
  -1  -9 -12    5.54    0.71
  -2  -9 -12    2.14    0.50
  -3  -9 -12    0.24    0.37
  -4  -9 -12    5.43    0.69
  -4  -9 -12    5.30    0.66
  -5  -9 -12    3.16    0.56
  -5  -9 -12    3.66    0.58
  -6  -9 -12    4.51    0.62
  -6  -9 -12    5.39    0.67
  -7  -9 -12    0.11    0.41
  -7  -9 -12    0.32    0.42
  -8  -9 -12    7.24    0.79
  -8  -9 -12    8.58    0.86
  -9  -9 -12    1.27    0.53
  -9  -9 -12    1.71    0.55
 -10  -9 -12    1.30    0.62
 -10  -9 -12    2.20    0.61
   1 -10 -12    0.52    0.54
   0 -10 -12    0.07    0.52
  -1 -10 -12    2.60    0.60
  -2 -10 -12    0.70    0.43
  -3 -10 -12    0.28    0.41
  -4 -10 -12    2.41    0.53
  -5 -10 -12    4.63    0.62
  -6 -10 -12   -0.33    0.35
  -6 -10 -12    0.36    0.38
  -7 -10 -12    0.53    0.44
  -7 -10 -12    0.94    0.43
  -8 -10 -12    0.48    0.45
  -8 -10 -12    0.01    0.43
  -9 -10 -12    1.48    0.50
  -9 -10 -12    1.16    0.53
 -10 -10 -12    1.14    0.55
 -10 -10 -12    1.16    0.59
   0 -11 -12    0.12    0.52
  -1 -11 -12    3.55    0.66
  -2 -11 -12    0.28    0.44
  -3 -11 -12   -0.25    0.43
  -4 -11 -12    0.22    0.41
  -5 -11 -12    1.81    0.50
  -5 -11 -12    1.11    0.45
  -6 -11 -12    9.29    0.84
  -6 -11 -12    9.83    0.84
  -7 -11 -12    2.85    0.55
  -7 -11 -12    2.50    0.54
  -8 -11 -12    0.74    0.49
  -8 -11 -12    1.26    0.50
  -9 -11 -12    0.95    0.49
  -9 -11 -12   -0.28    0.44
 -10 -11 -12    0.27    0.49
 -10 -11 -12    0.28    0.52
  -2 -12 -12    1.15    0.55
  -3 -12 -12    0.50    0.51
  -4 -12 -12    1.18    0.51
  -5 -12 -12    2.56    0.53
  -5 -12 -12    2.11    0.52
  -6 -12 -12   -0.04    0.41
  -6 -12 -12    0.39    0.43
  -7 -12 -12    1.22    0.48
  -7 -12 -12    1.06    0.47
  -8 -12 -12    0.28    0.43
  -8 -12 -12   -0.01    0.43
  -9 -12 -12    0.22    0.46
  -9 -12 -12    0.28    0.47
  -1  -2  13    0.87    0.69
  -3  -1  13    1.95    0.78
  -2  -1  13    0.37    0.61
  -1  -1  13    2.95    0.74
   0  -1  13    3.40    0.76
   1  -1  13    0.59    0.57
  -4   0  13   25.19    1.71
  -3   0  13    3.04    0.75
  -2   0  13    0.54    0.58
  -1   0  13    1.07    0.56
   0   0  13    1.79    0.61
   1   0  13   13.02    1.78
   2  -2 -13    0.45    0.54
   1  -2 -13    1.07    0.53
   1  -2 -13    1.01    0.50
   0  -2 -13    2.07    0.56
  -1  -2 -13    4.36    0.73
  -1  -2 -13    5.96    0.78
  -2  -2 -13    1.58    0.52
  -2  -2 -13    2.72    0.57
  -3  -2 -13    1.40    0.56
  -3  -2 -13    1.01    0.49
  -4  -2 -13   -0.12    0.43
  -4  -2 -13   -0.06    0.44
  -5  -2 -13    2.12    0.64
  -6  -2 -13    0.33    0.52
  -7  -2 -13    0.57    0.61
   3  -3 -13    0.90    0.46
   2  -3 -13    0.42    0.45
   1  -3 -13    0.02    0.38
   0  -3 -13    2.27    0.54
   0  -3 -13    2.59    0.55
   0  -3 -13    2.16    0.58
  -1  -3 -13    6.32    0.73
  -1  -3 -13    6.15    0.77
  -2  -3 -13    0.43    0.46
  -2  -3 -13    0.94    0.43
  -3  -3 -13    0.83    0.44
  -3  -3 -13    0.39    0.40
  -4  -3 -13    0.72    0.47
  -4  -3 -13    1.29    0.55
  -5  -3 -13   -0.39    0.42
  -5  -3 -13    0.18    0.45
  -6  -3 -13    1.83    0.61
  -6  -3 -13    1.29    0.53
  -7  -3 -13    1.51    0.66
  -7  -3 -13    0.93    0.55
  -8  -3 -13    1.25    0.59
  -8  -3 -13    2.23    0.74
   4  -4 -13    0.58    0.51
   3  -4 -13    0.29    0.42
   2  -4 -13    0.67    0.49
   1  -4 -13    0.54    0.49
   0  -4 -13    0.67    0.48
  -1  -4 -13    0.38    0.44
  -1  -4 -13    0.11    0.39
  -1  -4 -13    0.62    0.47
  -2  -4 -13    1.79    0.55
  -2  -4 -13    3.00    0.60
  -3  -4 -13    0.48    0.49
  -3  -4 -13    1.68    0.52
  -4  -4 -13   -0.44    0.37
  -4  -4 -13   -0.15    0.41
  -5  -4 -13    3.88    0.68
  -5  -4 -13    4.18    0.72
  -6  -4 -13   -0.12    0.51
  -6  -4 -13    0.41    0.48
  -7  -4 -13    0.74    0.55
  -7  -4 -13    1.20    0.56
  -8  -4 -13    0.24    0.57
  -8  -4 -13    0.74    0.55
   4  -5 -13    3.44    0.74
   3  -5 -13    0.89    0.53
   2  -5 -13    2.10    0.52
   1  -5 -13   -0.19    0.46
   0  -5 -13    9.14    0.93
  -1  -5 -13   10.55    0.98
  -2  -5 -13   -0.06    0.37
  -2  -5 -13   -0.33    0.34
  -2  -5 -13    0.23    0.40
  -3  -5 -13    0.55    0.42
  -3  -5 -13    0.05    0.44
  -4  -5 -13   -0.06    0.39
  -4  -5 -13    0.05    0.45
  -5  -5 -13    0.72    0.48
  -5  -5 -13    0.66    0.48
  -6  -5 -13    6.80    0.85
  -6  -5 -13    9.28    1.00
  -7  -5 -13    0.53    0.47
  -7  -5 -13    0.43    0.52
  -8  -5 -13    5.75    0.83
  -8  -5 -13    6.68    0.93
  -9  -5 -13    1.79    0.63
  -9  -5 -13    1.05    0.70
   4  -6 -13   -0.08    0.53
   3  -6 -13    0.27    0.53
   2  -6 -13   -0.49    0.42
   1  -6 -13    0.01    0.42
   0  -6 -13    0.24    0.48
  -1  -6 -13    1.67    0.49
  -2  -6 -13    0.80    0.46
  -2  -6 -13    1.12    0.44
  -3  -6 -13    0.26    0.41
  -3  -6 -13    0.28    0.41
  -4  -6 -13    1.55    0.54
  -4  -6 -13    1.44    0.50
  -5  -6 -13    7.14    0.82
  -5  -6 -13    7.49    0.84
  -6  -6 -13    0.36    0.53
  -6  -6 -13    0.81    0.48
  -7  -6 -13    0.44    0.59
  -7  -6 -13    1.42    0.51
  -8  -6 -13    0.12    0.48
  -8  -6 -13    2.02    0.64
  -9  -6 -13    3.82    0.76
  -9  -6 -13    4.20    0.85
   3  -7 -13    0.49    0.52
   2  -7 -13    3.01    0.65
   1  -7 -13    0.38    0.47
   0  -7 -13    3.75    0.69
  -1  -7 -13    0.36    0.41
  -2  -7 -13    0.75    0.44
  -3  -7 -13    0.54    0.42
  -3  -7 -13   -0.25    0.38
  -4  -7 -13    0.25    0.40
  -4  -7 -13   -0.13    0.44
  -5  -7 -13    0.33    0.41
  -5  -7 -13    0.35    0.41
  -6  -7 -13    2.96    0.65
  -6  -7 -13    2.50    0.57
  -7  -7 -13    0.23    0.48
  -7  -7 -13    0.92    0.54
  -8  -7 -13    1.10    0.56
  -8  -7 -13   -0.09    0.48
  -9  -7 -13    1.94    0.63
  -9  -7 -13    1.05    0.62
   2  -8 -13   -0.14    0.50
   1  -8 -13    0.99    0.51
   0  -8 -13    0.04    0.47
  -1  -8 -13   -0.18    0.40
  -2  -8 -13    3.41    0.65
  -3  -8 -13    1.25    0.49
  -4  -8 -13    2.46    0.59
  -4  -8 -13    1.82    0.54
  -5  -8 -13    0.70    0.47
  -5  -8 -13    2.11    0.54
  -6  -8 -13    1.04    0.56
  -6  -8 -13    1.71    0.52
  -7  -8 -13    5.02    0.73
  -7  -8 -13    5.27    0.74
  -8  -8 -13    0.85    0.53
  -8  -8 -13    0.96    0.54
  -9  -8 -13    0.93    0.60
  -9  -8 -13    0.21    0.53
   1  -9 -13   -0.07    0.53
   0  -9 -13    1.45    0.56
  -1  -9 -13    0.01    0.49
  -2  -9 -13   -0.35    0.40
  -3  -9 -13    2.87    0.63
  -4  -9 -13    0.14    0.46
  -4  -9 -13    0.38    0.41
  -5  -9 -13    1.85    0.54
  -5  -9 -13    1.78    0.56
  -6  -9 -13    0.61    0.45
  -6  -9 -13    1.85    0.54
  -7  -9 -13    1.45    0.54
  -7  -9 -13    1.18    0.55
  -8  -9 -13    0.10    0.50
  -8  -9 -13   -0.02    0.49
  -9  -9 -13    0.44    0.55
  -9  -9 -13    0.91    0.57
   0 -10 -13   -0.08    0.50
  -1 -10 -13    0.53    0.52
  -2 -10 -13    1.29    0.55
  -3 -10 -13    0.60    0.47
  -4 -10 -13    6.36    0.76
  -4 -10 -13    7.03    0.83
  -5 -10 -13    0.74    0.48
  -5 -10 -13    1.21    0.54
  -6 -10 -13    1.81    0.52
  -6 -10 -13    1.93    0.56
  -7 -10 -13    1.41    0.55
  -7 -10 -13    0.80    0.52
  -8 -10 -13    1.78    0.59
  -8 -10 -13    1.61    0.60
  -9 -10 -13    0.96    0.58
  -9 -10 -13    0.10    0.51
  -1 -11 -13    0.67    0.56
  -2 -11 -13    0.36    0.52
  -3 -11 -13    0.84    0.51
  -4 -11 -13    0.39    0.48
  -5 -11 -13   -0.19    0.45
  -6 -11 -13   -0.26    0.45
  -6 -11 -13   -0.09    0.46
  -7 -11 -13    0.62    0.52
  -7 -11 -13    0.44    0.49
  -8 -11 -13    0.15    0.50
  -8 -11 -13    0.00    0.49
  -4 -12 -13    0.31    0.50
  -5 -12 -13    0.04    0.48
  -6 -12 -13    0.06    0.50
  -6 -12 -13    0.41    0.51
  -7 -12 -13    0.51    0.52
  -7 -12 -13   -0.11    0.48
  -2  -2 -14    8.56    0.99
  -3  -2 -14    0.98    0.56
  -4  -2 -14    0.15    0.55
  -5  -2 -14    5.65    1.21
   1  -3 -14    0.76    0.49
   1  -3 -14    0.64    0.55
   0  -3 -14    0.03    0.45
   0  -3 -14    0.10    0.50
  -1  -3 -14    3.71    0.70
  -1  -3 -14    4.39    0.89
  -2  -3 -14    6.84    0.92
  -2  -3 -14    5.37    0.78
  -3  -3 -14    0.34    0.50
  -3  -3 -14    1.27    0.56
  -4  -3 -14    0.31    0.53
  -4  -3 -14    0.95    0.53
  -5  -3 -14    2.38    0.64
  -5  -3 -14    1.98    0.63
  -6  -3 -14   -0.39    0.51
   3  -4 -14    7.62    0.98
   2  -4 -14    2.85    0.69
   1  -4 -14    1.29    0.52
   0  -4 -14    0.34    0.46
   0  -4 -14    0.27    0.51
  -1  -4 -14    0.57    0.57
  -1  -4 -14    0.72    0.51
  -1  -4 -14    1.36    0.52
  -2  -4 -14    0.67    0.54
  -2  -4 -14    0.91    0.50
  -3  -4 -14    3.46    0.69
  -3  -4 -14    2.63    0.62
  -4  -4 -14    1.11    0.61
  -4  -4 -14    1.65    0.58
  -5  -4 -14    0.52    0.50
  -5  -4 -14   -0.20    0.52
  -6  -4 -14    2.11    0.65
  -6  -4 -14    3.01    0.69
  -7  -4 -14    2.06    0.70
  -7  -4 -14    1.41    0.62
   3  -5 -14    7.60    0.97
   2  -5 -14    3.14    0.70
   1  -5 -14    2.69    0.68
   0  -5 -14    1.95    0.63
  -1  -5 -14    2.19    0.65
  -1  -5 -14    1.09    0.59
  -2  -5 -14    2.73    0.71
  -2  -5 -14    2.02    0.56
  -3  -5 -14    2.34    0.64
  -3  -5 -14    1.47    0.53
  -4  -5 -14    1.04    0.51
  -4  -5 -14    0.34    0.53
  -5  -5 -14   -0.40    0.47
  -5  -5 -14    0.87    0.56
  -6  -5 -14    0.16    0.46
  -6  -5 -14   -0.10    0.58
  -7  -5 -14    2.68    0.72
  -7  -5 -14    3.75    0.77
   2  -6 -14    6.88    0.99
   1  -6 -14   -0.56    0.49
   0  -6 -14    0.39    0.48
  -1  -6 -14    0.31    0.46
  -2  -6 -14    3.91    0.73
  -2  -6 -14    2.02    0.56
  -3  -6 -14    5.92    0.82
  -3  -6 -14    6.59    0.82
  -4  -6 -14   -0.07    0.49
  -4  -6 -14    0.79    0.50
  -5  -6 -14    1.26    0.59
  -5  -6 -14    1.34    0.56
  -6  -6 -14    5.65    0.88
  -6  -6 -14    6.45    0.87
  -7  -6 -14   -0.19    0.58
  -7  -6 -14   -0.48    0.49
  -8  -6 -14   -0.49    0.63
  -8  -6 -14   -0.05    0.55
   2  -7 -14    0.84    0.54
   1  -7 -14   -0.43    0.47
   0  -7 -14   -0.07    0.46
  -1  -7 -14   -0.05    0.49
  -2  -7 -14    3.83    0.75
  -3  -7 -14    4.02    0.75
  -3  -7 -14    3.69    0.69
  -3  -7 -14    4.67    0.74
  -4  -7 -14   -0.20    0.46
  -4  -7 -14    0.39    0.50
  -5  -7 -14    1.10    0.53
  -5  -7 -14    0.22    0.46
  -6  -7 -14   -0.19    0.51
  -6  -7 -14    0.47    0.54
  -7  -7 -14    6.35    0.88
  -7  -7 -14    6.59    0.93
  -8  -7 -14    1.49    0.66
  -8  -7 -14    0.86    0.61
   1  -8 -14    0.30    0.55
   0  -8 -14   -0.31    0.50
  -1  -8 -14    0.43    0.56
  -2  -8 -14    2.13    0.63
  -3  -8 -14    1.38    0.55
  -3  -8 -14    1.89    0.63
  -4  -8 -14    2.75    0.64
  -4  -8 -14    2.36    0.62
  -5  -8 -14    0.47    0.51
  -5  -8 -14    0.17    0.50
  -6  -8 -14    2.93    0.70
  -6  -8 -14    2.55    0.67
  -7  -8 -14    0.28    0.52
  -7  -8 -14    0.10    0.52
  -8  -8 -14    3.69    0.79
  -8  -8 -14    5.01    0.80
   0  -9 -14    1.11    0.65
  -1  -9 -14   -0.30    0.55
  -2  -9 -14    0.82    0.53
  -3  -9 -14    4.33    0.72
  -4  -9 -14    0.40    0.52
  -5  -9 -14    0.30    0.52
  -5  -9 -14    0.98    0.57
  -6  -9 -14   -0.52    0.47
  -6  -9 -14    0.39    0.54
  -7  -9 -14    4.58    0.77
  -7  -9 -14    5.16    0.80
  -8  -9 -14    0.13    0.56
  -8  -9 -14    0.93    0.62
  -1 -10 -14    0.52    0.60
  -2 -10 -14    0.19    0.52
  -3 -10 -14   -0.18    0.54
  -4 -10 -14    1.48    0.63
  -4 -10 -14    1.15    0.58
  -5 -10 -14    0.40    0.53
  -5 -10 -14    0.81    0.58
  -6 -10 -14    0.40    0.54
  -6 -10 -14    1.04    0.55
  -7 -10 -14    1.59    0.63
  -7 -10 -14    1.82    0.64
  -8 -10 -14    6.41    0.90
  -8 -10 -14    7.25    0.90
  -4 -11 -14    0.50    0.54
  -4 -11 -14    1.10    0.57
  -5 -11 -14   -0.08    0.55
  -5 -11 -14   -0.27    0.52
  -6 -11 -14    0.25    0.54
  -6 -11 -14    1.02    0.60
  -1  -3 -15    0.04    0.64
  -2  -3 -15    1.93    0.67
  -3  -3 -15    5.65    0.88
   1  -4 -15    0.87    0.57
   1  -4 -15    1.16    0.65
   0  -4 -15    0.61    0.54
   0  -4 -15   -0.12    0.39
  -1  -4 -15   -0.66    0.51
  -2  -4 -15    0.02    0.50
  -2  -4 -15    1.25    0.65
  -3  -4 -15    2.68    0.72
  -3  -4 -15    3.47    0.75
  -4  -4 -15    1.50    0.69
  -4  -4 -15    1.46    0.64
  -5  -4 -15    1.09    0.63
  -5  -4 -15    1.40    0.77
   1  -5 -15    3.28    0.71
   0  -5 -15   -1.05    0.49
   0  -5 -15   -0.27    0.63
  -1  -5 -15   -0.07    0.43
  -1  -5 -15    0.53    0.53
  -1  -5 -15    0.54    0.53
  -2  -5 -15    0.28    0.57
  -2  -5 -15   -0.32    0.46
  -3  -5 -15    0.94    0.56
  -3  -5 -15    0.79    0.57
  -4  -5 -15   -0.31    0.52
  -4  -5 -15   -0.04    0.54
  -5  -5 -15    0.89    0.62
  -5  -5 -15    2.13    0.66
   0  -6 -15    3.73    0.83
  -1  -6 -15    1.23    0.53
  -1  -6 -15    0.51    0.58
  -2  -6 -15   -0.29    0.49
  -2  -6 -15    0.35    0.58
  -3  -6 -15   -0.13    0.54
  -3  -6 -15   -0.70    0.48
  -4  -6 -15   -0.20    0.48
  -4  -6 -15   -0.50    0.57
  -5  -6 -15    0.67    0.61
  -5  -6 -15    0.31    0.63
  -6  -6 -15   -0.67    0.57
  -6  -6 -15   -0.92    0.52
   0  -7 -15    0.67    0.67
  -1  -7 -15   -0.53    0.53
  -2  -7 -15    0.23    0.55
  -2  -7 -15   -0.36    0.53
  -3  -7 -15    2.11    0.64
  -3  -7 -15    2.10    0.66
  -4  -7 -15    0.33    0.55
  -4  -7 -15   -0.39    0.61
  -5  -7 -15   -0.16    0.51
  -5  -7 -15    0.05    0.62
  -6  -7 -15    1.28    0.64
  -6  -7 -15    0.42    0.63
  -1  -8 -15    0.24    0.55
  -2  -8 -15   -0.37    0.47
  -2  -8 -15   -0.46    0.57
  -3  -8 -15    1.08    0.60
  -3  -8 -15    1.12    0.63
  -3  -8 -15    2.07    0.69
  -4  -8 -15    2.54    0.70
  -4  -8 -15    1.98    0.67
  -5  -8 -15   -0.04    0.53
  -5  -8 -15   -0.43    0.60
  -6  -8 -15    0.01    0.57
  -6  -8 -15   -0.31    0.60
  -2  -9 -15   -0.17    0.55
  -3  -9 -15    2.01    0.66
  -3  -9 -15    1.42    0.67
  -4  -9 -15    4.17    0.82
  -4  -9 -15    5.48    0.87
  -5  -9 -15    1.10    0.64
  -5  -9 -15    1.36    0.66
  -6  -9 -15    0.23    0.59
  -6  -9 -15    0.34    0.60
   0   0   0    0.00    0.00
;
_shelx_hkl_checksum              45428
loop_
_space_group_symop_operation_xyz
'x, y, z'
'-x, -y, -z'
loop_
_atom_site_label
_atom_site_type_symbol
_atom_site_fract_x
_atom_site_fract_y
_atom_site_fract_z
_atom_site_U_iso_or_equiv
_atom_site_adp_type
_atom_site_occupancy
_atom_site_site_symmetry_order
_atom_site_calc_flag
_atom_site_refinement_flags_posn
_atom_site_refinement_flags_adp
C1 C 0.4179(3) 0.3223(3) 0.3559(3) 0.0193(5) Uani 1 1 d . .
C3 C 0.3631(3) 0.2962(3) 0.5026(3) 0.0192(5) Uani 1 1 d . .
C6 C 0.2509(3) 0.2614(3) 0.7709(3) 0.0205(5) Uani 1 1 d . .
C9 C 0.5926(3) 0.2611(3) 0.3468(3) 0.0197(5) Uani 1 1 d . .
C4 C 0.2084(3) 0.3333(3) 0.5368(3) 0.0220(5) Uani 1 1 d . .
H4 H 0.1386 0.3712 0.4681 0.026 Uiso 1 1 calc R U
C8 C 0.4601(3) 0.2377(3) 0.6075(3) 0.0210(5) Uani 1 1 d . .
H8 H 0.5668 0.2085 0.5892 0.025 Uiso 1 1 calc R U
C7 C 0.4063(3) 0.2204(3) 0.7385(3) 0.0226(6) Uani 1 1 d . .
H7 H 0.4769 0.1797 0.8073 0.027 Uiso 1 1 calc R U
C15 C 0.3484(3) 0.5057(3) 0.2618(3) 0.0212(5) Uani 1 1 d . .
C5 C 0.1525(3) 0.3172(3) 0.6654(3) 0.0222(5) Uani 1 1 d . .
H5 H 0.0460 0.3442 0.6834 0.027 Uiso 1 1 calc R U
C2 C 0.3636(3) 0.2273(4) 0.3100(3) 0.0254(6) Uani 1 1 d . .
H2A H 0.4153 0.2215 0.2249 0.038 Uiso 1 1 calc R U
H2B H 0.2524 0.2840 0.2962 0.038 Uiso 1 1 calc R U
H2C H 0.3886 0.1160 0.3796 0.038 Uiso 1 1 calc R U
C14 C 0.6873(3) 0.1047(3) 0.3505(3) 0.0246(6) Uani 1 1 d . .
H14 H 0.6428 0.0343 0.3560 0.030 Uiso 1 1 calc R U
C20 C 0.2821(3) 0.6299(3) 0.3093(3) 0.0256(6) Uani 1 1 d . .
H20 H 0.2727 0.6029 0.4040 0.031 Uiso 1 1 calc R U
C10 C 0.6634(3) 0.3603(4) 0.3380(3) 0.0278(6) Uani 1 1 d . .
H10 H 0.6016 0.4681 0.3339 0.033 Uiso 1 1 calc R U
C12 C 0.9131(4) 0.1507(4) 0.3384(3) 0.0312(7) Uani 1 1 d . .
H12 H 1.0216 0.1131 0.3352 0.037 Uiso 1 1 calc R U
C11 C 0.8215(4) 0.3055(4) 0.3351(3) 0.0306(7) Uani 1 1 d . .
H11 H 0.8668 0.3747 0.3308 0.037 Uiso 1 1 calc R U
C18 C 0.2432(4) 0.8360(4) 0.0818(4) 0.0380(8) Uani 1 1 d . .
H18 H 0.2080 0.9480 0.0210 0.046 Uiso 1 1 calc R U
C16 C 0.3604(4) 0.5508(4) 0.1220(3) 0.0295(6) Uani 1 1 d . .
H16 H 0.4047 0.4680 0.0870 0.035 Uiso 1 1 calc R U
C13 C 0.8459(4) 0.0507(4) 0.3463(3) 0.0317(7) Uani 1 1 d . .
H13 H 0.9086 -0.0563 0.3490 0.038 Uiso 1 1 calc R U
C17 C 0.3090(4) 0.7137(4) 0.0335(3) 0.0369(8) Uani 1 1 d . .
H17 H 0.3192 0.7415 -0.0613 0.044 Uiso 1 1 calc R U
C19 C 0.2290(4) 0.7940(4) 0.2193(4) 0.0332(7) Uani 1 1 d . .
H19 H 0.1826 0.8777 0.2534 0.040 Uiso 1 1 calc R U
C21 C 0.0335(4) 0.3276(5) 0.9213(4) 0.0412(8) Uani 1 1 d . .
H21A H 0.0009 0.4467 0.8753 0.062 Uiso 1 1 calc R U
H21B H 0.0112 0.2980 1.0184 0.062 Uiso 1 1 calc R U
H21C H -0.0220 0.2927 0.8841 0.062 Uiso 1 1 calc R U
C22 C 0.2930(4) 0.2338(5) 0.9937(3) 0.0417(8) Uani 1 1 d . .
H22A H 0.3898 0.1371 1.0052 0.062 Uiso 1 1 calc R U
H22B H 0.2408 0.2226 1.0815 0.062 Uiso 1 1 calc R U
H22C H 0.3139 0.3323 0.9569 0.062 Uiso 1 1 calc R U
N1 N 0.1959(3) 0.2473(3) 0.9009(2) 0.0275(5) Uani 1 1 d . .
loop_
_atom_site_aniso_label
_atom_site_aniso_U_11
_atom_site_aniso_U_22
_atom_site_aniso_U_33
_atom_site_aniso_U_23
_atom_site_aniso_U_13
_atom_site_aniso_U_12
C1 0.0230(13) 0.0168(11) 0.0174(12) -0.0046(9) -0.0017(9) -0.0090(9)
C3 0.0240(13) 0.0157(11) 0.0194(12) -0.0049(9) -0.0019(10) -0.0106(9)
C6 0.0255(13) 0.0173(12) 0.0197(12) -0.0058(9) -0.0007(10) -0.0107(10)
C9 0.0237(13) 0.0180(12) 0.0155(11) -0.0049(9) 0.0001(9) -0.0088(10)
C4 0.0224(13) 0.0234(13) 0.0201(12) -0.0065(10) -0.0051(10) -0.0095(10)
C8 0.0206(13) 0.0204(12) 0.0228(13) -0.0079(10) -0.0016(10) -0.0091(10)
C7 0.0238(13) 0.0236(13) 0.0199(12) -0.0065(10) -0.0051(10) -0.0094(10)
C15 0.0176(12) 0.0190(12) 0.0220(13) -0.0031(10) -0.0005(9) -0.0082(9)
C5 0.0205(13) 0.0223(12) 0.0235(13) -0.0072(10) -0.0009(10) -0.0099(10)
C2 0.0324(15) 0.0269(14) 0.0216(13) -0.0098(11) -0.0049(11) -0.0140(12)
C14 0.0299(15) 0.0179(12) 0.0245(13) -0.0063(10) 0.0008(11) -0.0109(11)
C20 0.0237(14) 0.0211(13) 0.0315(15) -0.0088(11) -0.0005(11) -0.0100(11)
C10 0.0269(15) 0.0211(13) 0.0372(16) -0.0134(12) 0.0007(12) -0.0099(11)
C12 0.0227(14) 0.0310(15) 0.0369(17) -0.0130(13) 0.0024(12) -0.0100(12)
C11 0.0280(15) 0.0289(15) 0.0392(17) -0.0144(13) 0.0024(12) -0.0153(12)
C18 0.0266(16) 0.0226(14) 0.046(2) 0.0036(13) -0.0052(13) -0.0091(12)
C16 0.0273(15) 0.0280(14) 0.0235(14) -0.0048(11) 0.0015(11) -0.0091(12)
C13 0.0280(15) 0.0224(14) 0.0393(17) -0.0128(12) 0.0012(12) -0.0059(11)
C17 0.0296(16) 0.0337(17) 0.0276(16) 0.0020(13) 0.0014(12) -0.0111(13)
C19 0.0244(15) 0.0211(14) 0.049(2) -0.0102(13) -0.0025(13) -0.0082(11)
C21 0.0307(17) 0.064(2) 0.0338(17) -0.0258(17) 0.0087(14) -0.0206(16)
C22 0.0410(19) 0.065(2) 0.0261(16) -0.0213(16) -0.0015(14) -0.0234(17)
N1 0.0302(13) 0.0339(13) 0.0215(12) -0.0119(10) 0.0019(10) -0.0156(11)
loop_
_atom_type_symbol
_atom_type_description
_atom_type_scat_dispersion_real
_atom_type_scat_dispersion_imag
_atom_type_scat_source
C C 0.0033 0.0016 'International Tables Vol C Tables 4.2.6.8 and 6.1.1.4'
H H 0.0000 0.0000 'International Tables Vol C Tables 4.2.6.8 and 6.1.1.4'
N N 0.0061 0.0033 'International Tables Vol C Tables 4.2.6.8 and 6.1.1.4'
loop_
_geom_angle_atom_site_label_1
_geom_angle_atom_site_label_2
_geom_angle_atom_site_label_3
_geom_angle
C9 C1 C3 110.4(2)
C9 C1 C15 108.2(2)
C3 C1 C15 110.8(2)
C9 C1 C2 110.7(2)
C3 C1 C2 107.7(2)
C15 C1 C2 109.0(2)
C8 C3 C4 116.1(2)
C8 C3 C1 123.4(2)
C4 C3 C1 120.5(2)
N1 C6 C7 121.7(2)
N1 C6 C5 121.6(3)
C7 C6 C5 116.7(2)
C14 C9 C10 117.4(3)
C14 C9 C1 122.1(2)
C10 C9 C1 120.5(2)
C5 C4 C3 122.9(2)
C5 C4 H4 118.6
C3 C4 H4 118.6
C3 C8 C7 122.1(3)
C3 C8 H8 118.9
C7 C8 H8 118.9
C8 C7 C6 121.4(2)
C8 C7 H7 119.3
C6 C7 H7 119.3
C20 C15 C16 117.8(2)
C20 C15 C1 123.0(2)
C16 C15 C1 119.1(2)
C4 C5 C6 120.9(3)
C4 C5 H5 119.6
C6 C5 H5 119.6
C1 C2 H2A 109.5
C1 C2 H2B 109.5
H2A C2 H2B 109.5
C1 C2 H2C 109.5
H2A C2 H2C 109.5
H2B C2 H2C 109.5
C13 C14 C9 120.8(3)
C13 C14 H14 119.6
C9 C14 H14 119.6
C15 C20 C19 120.6(3)
C15 C20 H20 119.7
C19 C20 H20 119.7
C11 C10 C9 121.6(3)
C11 C10 H10 119.2
C9 C10 H10 119.2
C11 C12 C13 119.4(3)
C11 C12 H12 120.3
C13 C12 H12 120.3
C12 C11 C10 120.0(3)
C12 C11 H11 120.0
C10 C11 H11 120.0
C19 C18 C17 119.2(3)
C19 C18 H18 120.4
C17 C18 H18 120.4
C17 C16 C15 121.3(3)
C17 C16 H16 119.4
C15 C16 H16 119.4
C12 C13 C14 120.7(3)
C12 C13 H13 119.6
C14 C13 H13 119.6
C18 C17 C16 120.4(3)
C18 C17 H17 119.8
C16 C17 H17 119.8
C18 C19 C20 120.7(3)
C18 C19 H19 119.6
C20 C19 H19 119.6
N1 C21 H21A 109.5
N1 C21 H21B 109.5
H21A C21 H21B 109.5
N1 C21 H21C 109.5
H21A C21 H21C 109.5
H21B C21 H21C 109.5
N1 C22 H22A 109.5
N1 C22 H22B 109.5
H22A C22 H22B 109.5
N1 C22 H22C 109.5
H22A C22 H22C 109.5
H22B C22 H22C 109.5
C6 N1 C21 118.9(3)
C6 N1 C22 118.3(3)
C21 N1 C22 115.1(3)
loop_
_geom_bond_atom_site_label_1
_geom_bond_atom_site_label_2
_geom_bond_distance
C1 C9 1.529(4)
C1 C3 1.536(4)
C1 C15 1.541(4)
C1 C2 1.548(4)
C3 C8 1.387(4)
C3 C4 1.395(4)
C6 N1 1.389(4)
C6 C7 1.394(4)
C6 C5 1.409(4)
C9 C14 1.394(4)
C9 C10 1.396(4)
C4 C5 1.374(4)
C4 H4 0.9500
C8 C7 1.391(4)
C8 H8 0.9500
C7 H7 0.9500
C15 C20 1.388(4)
C15 C16 1.394(4)
C5 H5 0.9500
C2 H2A 0.9800
C2 H2B 0.9800
C2 H2C 0.9800
C14 C13 1.390(4)
C14 H14 0.9500
C20 C19 1.394(4)
C20 H20 0.9500
C10 C11 1.384(4)
C10 H10 0.9500
C12 C11 1.378(4)
C12 C13 1.379(5)
C12 H12 0.9500
C11 H11 0.9500
C18 C19 1.375(5)
C18 C17 1.378(5)
C18 H18 0.9500
C16 C17 1.382(4)
C16 H16 0.9500
C13 H13 0.9500
C17 H17 0.9500
C19 H19 0.9500
C21 N1 1.441(4)
C21 H21A 0.9800
C21 H21B 0.9800
C21 H21C 0.9800
C22 N1 1.451(4)
C22 H22A 0.9800
C22 H22B 0.9800
C22 H22C 0.9800
